1

   Abaqus 3DEXPERIENCE R2017x                                  Date 21-févr.-2018   Time 17:52:08
   For use by ECOLE NATIONALE SUPERIEURE DES MINES under license from Dassault Systemes or its subsidiary.



                         The Abaqus Software is a product of:

                           Dassault Systemes SIMULIA Corp.
                           1301 Atwood Avenue, Suite 101W
                              Johnston, RI 02919, USA
 


                   The Abaqus Software is available only under license
                   from Dassault Systemes or its subsidiary and may be
                   used or reproduced only in accordance with the terms
                   of such license.
 
                          On machine cis-laubrie 
                          you are authorized to run
                          Abaqus/Standard until 30-Sep-2018

                          Your site id is: 100000000002615 


 
                    For assistance or any other information you may
                    obtain contact information for your local office
                    from the world wide web at:

                      http://www.3ds.com/products/simulia/locations/

 
                * * * * * * * * * * * * * * * * * * * * * * * * * * * * * * 
                *                                                         * 
                *                   *****************                     * 
                *                   *  N O T I C E  *                     * 
                *                   *****************                     * 
                *                                                         * 
                *                                                         * 
                *               Abaqus 3DEXPERIENCE R2017x                * 
                *                                                         * 
                *          BUILD ID: 2016_09_27-23.54.59 126836           * 
                *                                                         * 
                *                                                         * 
                *  Please make sure you are using                         * 
                *  release 3DEXPERIENCE R2017x manuals                    * 
                *  plus the notes accompanying this release.              * 
                *                                                         * 
                *                                                         * 
                *                                                         * 
                *                                                         * 
                *                                                         * 
                *   This program may not be used for commercial purposes  * 
                *           without payment of a commercial fee.          * 
                *                                                         * 
                * * * * * * * * * * * * * * * * * * * * * * * * * * * * * * 


 



     PROCESSING PART, INSTANCE, AND ASSEMBLY INFORMATION
   *******************************************************


     END PROCESSING PART, INSTANCE, AND ASSEMBLY INFORMATION
   ***********************************************************

1

   Abaqus 3DEXPERIENCE R2017x                                  Date 21-févr.-2018   Time 17:52:09
   For use by ECOLE NATIONALE SUPERIEURE DES MINES under license from Dassault Systemes or its subsidiary.

                                                                                     

                                      P A R A M E T E R   I N T E R P R E T A T I O N


                            
                     ***COMMENT: STARTING PARAMETER EVALUATION      
                            
                     ***COMMENT: STARTING PARAMETER SUBSTITUTION    
     LINE     5             
                     ***COMMENT: EVALUATION AND SUBSTITUTION OF PARAMETERS COMPLETED
                    --------------------------------------------------------------------------------
                        5   10   15   20   25   30   35   40   45   50   55   60   65   70   75   80
                    --------------------------------------------------------------------------------



     OPTIONS BEING PROCESSED
   ***************************


  *Node, NSET=ALLNODES
  *Element, TYPE=C3D8H, ELSET=ALLELEMENTS
  *Elset, elset=adventitia
  *Elset, elset=media
  *Elset, elset=m1, generate
  *Nset, nset=symetric1, generate
  *Nset, nset=symetric2, generate
  *Nset, nset=z0
  *Nset, nset=z1
  *Nset, nset=alltransform
  *Material, name=media
  *Density
  *user material, constants=9, type=mechanical
  *DEPVAR
  *Material, name=adventitia
  *Density
  *user material, constants=9, type=mechanical
  *DEPVAR
  *Orientation, name=Ori-1, system=CYLINDRICAL
  *SOLID SECTION, ELSET= ALLELEMENTS, MATERIAL=media, orientation=Ori-1
  *SOLID SECTION, ELSET= ALLELEMENTS, MATERIAL=media, orientation=Ori-1
  *Surface, type=ELEMENT, name=inner
  *Surface, type=ELEMENT, name=inner
  *Transform, nset=alltransform, type=C
  *Boundary
  *Boundary
  *Boundary
  *Boundary
  *Surface, type=ELEMENT, name=inner
  *OUTPUT, FIELD, VARIABLE=ALL, time interval=0.05
  *OUTPUT, FIELD, VARIABLE=ALL, time interval=0.05
  *OUTPUT, FIELD, VARIABLE=ALL, time interval=0.05
  *Amplitude, name=load
  *STEP, INC=1000, NLGEOM
  *OUTPUT, FIELD, VARIABLE=ALL, time interval=0.05
  *STEP, INC=1000, NLGEOM
  *STEP, INC=1000, NLGEOM
  *STATIC
  *Dsload, amplitude=load
  *NODE FILE, frequency=1000
  *EL FILE, FREQ=1000
  *NODE PRINT, NSET=ALLNODES, FREQUENCY=1000
  *OUTPUT, FIELD, VARIABLE=ALL, time interval=0.05
  *END STEP

 ***WARNING: OUTPUT AT EXACT, PREDEFINED TIME POINTS WAS REQUESTED IN THIS 
             STEP. IN ORDER TO WRITE OUTPUT AT EXACT TIME POINTS SPECIFIED, 
             Abaqus MIGHT USE TIME INCREMENTS SMALLER THAN THE MINIMUM TIME 
             INCREMENT ALLOWED IN THE STEP. IN ADDITION, THE NUMBER OF 
             INCREMENTS REQUIRED TO COMPLETE THE STEP WILL IN GENERAL INCREASE.
  *Boundary
  *Boundary
  *STEP, INC=1000, NLGEOM
  *STATIC
  *END STEP



                            P R O B L E M   S I Z E


          NUMBER OF ELEMENTS IS                                  2000
          NUMBER OF NODES IS                                     4730
          NUMBER OF NODES DEFINED BY THE USER                    2730
          NUMBER OF INTERNAL NODES GENERATED BY THE PROGRAM      2000
          TOTAL NUMBER OF VARIABLES IN THE MODEL                10190
          (DEGREES OF FREEDOM PLUS MAX NO. OF ANY LAGRANGE MULTIPLIER
           VARIABLES. INCLUDE *PRINT,SOLVE=YES TO GET THE ACTUAL NUMBER.)



                              END OF USER INPUT PROCESSING



     JOB TIME SUMMARY
       USER TIME (SEC)      =  0.22000    
       SYSTEM TIME (SEC)    =  5.00000E-02
       TOTAL CPU TIME (SEC) =  0.27000    
       WALLCLOCK TIME (SEC) =          1
1

   Abaqus 3DEXPERIENCE R2017x                                  Date 21-févr.-2018   Time 17:52:10
   For use by ECOLE NATIONALE SUPERIEURE DES MINES under license from Dassault Systemes or its subsidiary.

                                                                                               STEP    1  INCREMENT    1
                                                                                          TIME COMPLETED IN THIS STEP   0.00    


                        S T E P       1     S T A T I C   A N A L Y S I S


                                                                                          

     AUTOMATIC TIME CONTROL WITH -
          A SUGGESTED INITIAL TIME INCREMENT OF                0.100    
          AND A TOTAL TIME PERIOD OF                            1.00    
          THE MINIMUM TIME INCREMENT ALLOWED IS                1.000E-05
          THE MAXIMUM TIME INCREMENT ALLOWED IS                 1.00    

     LINEAR EQUATION SOLVER TYPE         DIRECT SPARSE

          LARGE DISPLACEMENT THEORY WILL BE USED
  
                   M E M O R Y   E S T I M A T E
  
 PROCESS      FLOATING PT       MINIMUM MEMORY        MEMORY TO
              OPERATIONS           REQUIRED          MINIMIZE I/O
             PER ITERATION           (MB)               (MB)
  
     1          5.78E+08               19                 52
  
 NOTE:
      (1) SINCE ABAQUS DOES NOT PRE-ALLOCATE MEMORY AND ONLY ALLOCATES MEMORY AS NEEDED DURING THE ANALYSIS,
          THE MEMORY REQUIREMENT PRINTED HERE CAN ONLY BE VIEWED AS A GENERAL GUIDELINE BASED ON THE BEST
          KNOWLEDGE AVAILABLE AT THE BEGINNING OF A STEP BEFORE THE SOLUTION PROCESS HAS BEGUN.
      (2) THE ESTIMATE IS NORMALLY UPDATED AT THE BEGINNING OF EVERY STEP. IT IS THE MAXIMUM VALUE OF THE
          ESTIMATE FROM THE CURRENT STEP TO THE LAST STEP OF THE ANALYSIS, WITH UNSYMMETRIC SOLUTION TAKEN
          INTO ACCOUNT IF APPLICABLE. 
      (3) SINCE THE ESTIMATE IS BASED ON THE ACTIVE DEGREES OF FREEDOM IN THE FIRST ITERATION OF THE 
          CURRENT STEP, THE MEMORY ESTIMATE MIGHT BE SIGNIFICANTLY DIFFERENT THAN ACTUAL USAGE FOR 
          PROBLEMS WITH SUBSTANTIAL CHANGES IN ACTIVE DEGREES OF FREEDOM BETWEEN STEPS (OR EVEN WITHIN
          THE SAME STEP). EXAMPLES ARE: PROBLEMS WITH SIGNIFICANT CONTACT CHANGES, PROBLEMS WITH MODEL
          CHANGE, PROBLEMS WITH BOTH STATIC STEP AND STEADY STATE DYNAMIC PROCEDURES WHERE ACOUSTIC 
          ELEMENTS WILL ONLY BE ACTIVATED IN THE STEADY STATE DYNAMIC STEPS.
      (4) FOR MULTI-PROCESS EXECUTION, THE ESTIMATED VALUE OF FLOATING POINT OPERATIONS FOR EACH PROCESS
          IS BASED ON AN INITIAL SCHEDULING OF OPERATIONS AND MIGHT NOT REFLECT THE ACTUAL FLOATING 
          POINT OPERATIONS COMPLETED ON EACH PROCESS. OPERATIONS ARE DYNAMICALLY BALANCED DURING EXECUTION, 
          SO THE ACTUAL BALANCE OF OPERATIONS BETWEEN PROCESSES IS EXPECTED TO BE BETTER THAN THE ESTIMATE
          PRINTED HERE.
      (5) THE UPPER LIMIT OF MEMORY THAT CAN BE ALLOCATED BY ABAQUS WILL IN GENERAL DEPEND ON THE VALUE OF
          THE "MEMORY" PARAMETER AND THE AMOUNT OF PHYSICAL MEMORY AVAILABLE ON THE MACHINE. PLEASE SEE
          THE "ABAQUS ANALYSIS USER'S MANUAL" FOR MORE DETAILS. THE ACTUAL USAGE OF MEMORY AND OF DISK
          SPACE FOR SCRATCH DATA WILL DEPEND ON THIS UPPER LIMIT AS WELL AS THE MEMORY REQUIRED TO MINIMIZE
          I/O. IF THE MEMORY UPPER LIMIT IS GREATER THAN THE MEMORY REQUIRED TO MINIMIZE I/O, THEN THE ACTUAL
          MEMORY USAGE WILL BE CLOSE TO THE ESTIMATED "MEMORY TO MINIMIZE I/O" VALUE, AND THE SCRATCH DISK
          USAGE WILL BE CLOSE-TO-ZERO; OTHERWISE, THE ACTUAL MEMORY USED WILL BE CLOSE TO THE PREVIOUSLY
          MENTIONED MEMORY LIMIT, AND THE SCRATCH DISK USAGE WILL BE ROUGHLY PROPORTIONAL TO THE DIFFERENCE
          BETWEEN THE ESTIMATED "MEMORY TO MINIMIZE I/O" AND THE MEMORY UPPER LIMIT. HOWEVER ACCURATE
          ESTIMATE OF THE SCRATCH DISK SPACE IS NOT POSSIBLE.
      (6) USING "*RESTART, WRITE" CAN GENERATE A LARGE AMOUNT OF DATA WRITTEN IN THE WORK DIRECTORY.


                                INCREMENT    20 SUMMARY


 TIME INCREMENT COMPLETED  5.000E-02,  FRACTION OF STEP COMPLETED   1.00    
 STEP TIME COMPLETED        1.00    ,  TOTAL TIME COMPLETED         1.00    
  
  
  
  
                                       N O D E   O U T P U T
  
  
  
  
   THE FOLLOWING TABLE IS PRINTED FOR NODES BELONGING TO NODE SET ALLNODES
  
       NODE FOOT-  U1             U2             U3           
            NOTE
  
          1 CT  -2.7116202E-06  0.0000000E+00  0.0000000E+00
          2 CT  -2.7919477E-06  0.0000000E+00  0.0000000E+00
          3 CT  -2.8741126E-06  0.0000000E+00  0.0000000E+00
          4 CT  -2.9582671E-06  0.0000000E+00  0.0000000E+00
          5 CT  -3.0445646E-06  0.0000000E+00  0.0000000E+00
          6 CT  -2.7116444E-06  0.0000000E+00  4.6873545E-11
          7 CT  -2.7919893E-06  0.0000000E+00  1.7912532E-11
          8 CT  -2.8741362E-06  0.0000000E+00 -1.3181663E-11
          9 CT  -2.9582871E-06  0.0000000E+00 -2.9514335E-11
         10 CT  -3.0445530E-06  0.0000000E+00 -3.7825065E-11
         11 CT  -2.7116205E-06  0.0000000E+00 -7.0348821E-11
         12 CT  -2.7919935E-06  0.0000000E+00 -4.7716087E-11
         13 CT  -2.8741494E-06  0.0000000E+00 -2.4871075E-11
         14 CT  -2.9582960E-06  0.0000000E+00 -1.3485704E-11
         15 CT  -3.0445554E-06  0.0000000E+00 -3.6479935E-12
         16 CT  -2.7116502E-06  0.0000000E+00 -1.5118878E-11
         17 CT  -2.7920033E-06  0.0000000E+00 -2.2348069E-11
         18 CT  -2.8741570E-06  0.0000000E+00 -2.8798131E-11
         19 CT  -2.9583058E-06  0.0000000E+00 -2.7553811E-11
         20 CT  -3.0445715E-06  0.0000000E+00 -2.7785688E-11
         21 CT  -2.7116482E-06  0.0000000E+00 -3.4144621E-11
         22 CT  -2.7920124E-06  0.0000000E+00 -2.3967971E-11
         23 CT  -2.8741644E-06  0.0000000E+00 -1.6606346E-11
         24 CT  -2.9583117E-06  0.0000000E+00 -1.5089188E-11
         25 CT  -3.0445722E-06  0.0000000E+00 -1.1001901E-11
         26 CT  -2.7116586E-06  0.0000000E+00 -6.9369661E-12
         27 CT  -2.7920155E-06  0.0000000E+00 -1.1299760E-11
         28 CT  -2.8741689E-06  0.0000000E+00 -1.2862631E-11
         29 CT  -2.9583154E-06  0.0000000E+00 -1.0536456E-11
         30 CT  -3.0445777E-06  0.0000000E+00 -1.1384104E-11
         31 CT  -2.7116575E-06  0.0000000E+00 -1.3007324E-11
         32 CT  -2.7920185E-06  0.0000000E+00 -8.1680121E-12
         33 CT  -2.8741700E-06  0.0000000E+00 -6.2564777E-12
         34 CT  -2.9583169E-06  0.0000000E+00 -7.1581027E-12
         35 CT  -3.0445780E-06  0.0000000E+00 -5.1046278E-12
         36 CT  -2.7116603E-06  0.0000000E+00 -1.4736457E-12
         37 CT  -2.7920185E-06  0.0000000E+00 -4.5931213E-12
         38 CT  -2.8741714E-06  0.0000000E+00 -5.0326664E-12
         39 CT  -2.9583175E-06  0.0000000E+00 -3.5136210E-12
         40 CT  -3.0445791E-06  0.0000000E+00 -4.7883644E-12
         41 CT  -2.7116593E-06  0.0000000E+00 -5.1709210E-12
         42 CT  -2.7920192E-06  0.0000000E+00 -2.5361040E-12
         43 CT  -2.8741709E-06  0.0000000E+00 -2.2157855E-12
         44 CT  -2.9583178E-06  0.0000000E+00 -3.3673201E-12
         45 CT  -3.0445790E-06  0.0000000E+00 -2.0989442E-12
         46 CT  -2.7116600E-06  0.0000000E+00  8.4957546E-15
         47 CT  -2.7920187E-06  0.0000000E+00 -2.1041453E-12
         48 CT  -2.8741714E-06  0.0000000E+00 -2.1339796E-12
         49 CT  -2.9583178E-06  0.0000000E+00 -1.0888244E-12
         50 CT  -3.0445792E-06  0.0000000E+00 -2.1971952E-12
         51 CT  -2.7116596E-06  0.0000000E+00 -2.4892359E-12
         52 CT  -2.7920191E-06  0.0000000E+00 -7.0145588E-13
         53 CT  -2.8741710E-06  0.0000000E+00 -7.8436528E-13
         54 CT  -2.9583177E-06  0.0000000E+00 -1.6749072E-12
         55 CT  -3.0445790E-06  0.0000000E+00 -6.7661914E-13
         56 CT  -2.7116599E-06  0.0000000E+00  5.9438900E-13
         57 CT  -2.7920189E-06  0.0000000E+00 -9.8573341E-13
         58 CT  -2.8741713E-06  0.0000000E+00 -8.6873258E-13
         59 CT  -2.9583176E-06  0.0000000E+00 -5.9401841E-14
         60 CT  -3.0445790E-06  0.0000000E+00 -9.8452290E-13
         61 CT  -2.7116596E-06  0.0000000E+00 -1.1983435E-12
         62 CT  -2.7920189E-06  0.0000000E+00  2.4784572E-13
         63 CT  -2.8741711E-06  0.0000000E+00  1.1454073E-13
         64 CT  -2.9583177E-06  0.0000000E+00 -6.7907506E-13
         65 CT  -3.0445790E-06  0.0000000E+00  1.7146169E-13
         66 CT  -2.7116596E-06  0.0000000E+00  1.2292318E-12
         67 CT  -2.7920189E-06  0.0000000E+00 -2.4351958E-13
         68 CT  -2.8741710E-06  0.0000000E+00 -1.1817731E-13
         69 CT  -2.9583177E-06  0.0000000E+00  6.6234117E-13
         70 CT  -3.0445790E-06  0.0000000E+00 -1.9021934E-13
         71 CT  -2.7116597E-06  0.0000000E+00 -5.7813749E-13
         72 CT  -2.7920188E-06  0.0000000E+00  1.0100473E-12
         73 CT  -2.8741712E-06  0.0000000E+00  9.1975154E-13
         74 CT  -2.9583177E-06  0.0000000E+00  1.0122046E-13
         75 CT  -3.0445791E-06  0.0000000E+00  9.9835902E-13
         76 CT  -2.7116596E-06  0.0000000E+00  2.3897651E-12
         77 CT  -2.7920191E-06  0.0000000E+00  6.4306551E-13
         78 CT  -2.8741710E-06  0.0000000E+00  6.9211542E-13
         79 CT  -2.9583177E-06  0.0000000E+00  1.6261697E-12
         80 CT  -3.0445790E-06  0.0000000E+00  6.8792476E-13
         81 CT  -2.7116601E-06  0.0000000E+00 -1.7251081E-14
         82 CT  -2.7920188E-06  0.0000000E+00  2.0956618E-12
         83 CT  -2.8741715E-06  0.0000000E+00  2.1453689E-12
         84 CT  -2.9583176E-06  0.0000000E+00  1.1001544E-12
         85 CT  -3.0445791E-06  0.0000000E+00  2.1793947E-12
         86 CT  -2.7116593E-06  0.0000000E+00  5.2576158E-12
         87 CT  -2.7920192E-06  0.0000000E+00  2.5817777E-12
         88 CT  -2.8741709E-06  0.0000000E+00  2.2497521E-12
         89 CT  -2.9583178E-06  0.0000000E+00  3.3635986E-12
         90 CT  -3.0445790E-06  0.0000000E+00  2.0969570E-12
         91 CT  -2.7116601E-06  0.0000000E+00  1.5246727E-12
         92 CT  -2.7920184E-06  0.0000000E+00  4.6193396E-12
         93 CT  -2.8741714E-06  0.0000000E+00  5.0821613E-12
         94 CT  -2.9583176E-06  0.0000000E+00  3.5428527E-12
         95 CT  -3.0445792E-06  0.0000000E+00  4.7765120E-12
         96 CT  -2.7116574E-06  0.0000000E+00  1.2902506E-11
         97 CT  -2.7920184E-06  0.0000000E+00  8.1083632E-12
         98 CT  -2.8741700E-06  0.0000000E+00  6.1717395E-12
         99 CT  -2.9583170E-06  0.0000000E+00  7.1141089E-12
        100 CT  -3.0445780E-06  0.0000000E+00  5.1075185E-12
        101 CT  -2.7116587E-06  0.0000000E+00  6.9123911E-12
        102 CT  -2.7920156E-06  0.0000000E+00  1.1293593E-11
        103 CT  -2.8741689E-06  0.0000000E+00  1.2855154E-11
        104 CT  -2.9583153E-06  0.0000000E+00  1.0546851E-11
        105 CT  -3.0445777E-06  0.0000000E+00  1.1405612E-11
        106 CT  -2.7116483E-06  0.0000000E+00  3.4220883E-11
        107 CT  -2.7920124E-06  0.0000000E+00  2.4031033E-11
        108 CT  -2.8741645E-06  0.0000000E+00  1.6693146E-11
        109 CT  -2.9583117E-06  0.0000000E+00  1.5143765E-11
        110 CT  -3.0445722E-06  0.0000000E+00  1.1024386E-11
        111 CT  -2.7116502E-06  0.0000000E+00  1.5107467E-11
        112 CT  -2.7920033E-06  0.0000000E+00  2.2318037E-11
        113 CT  -2.8741570E-06  0.0000000E+00  2.8744855E-11
        114 CT  -2.9583058E-06  0.0000000E+00  2.7514761E-11
        115 CT  -3.0445715E-06  0.0000000E+00  2.7765002E-11
        116 CT  -2.7116205E-06  0.0000000E+00  7.0331044E-11
        117 CT  -2.7919935E-06  0.0000000E+00  4.7717407E-11
        118 CT  -2.8741494E-06  0.0000000E+00  2.4882853E-11
        119 CT  -2.9582959E-06  0.0000000E+00  1.3489303E-11
        120 CT  -3.0445554E-06  0.0000000E+00  3.6449788E-12
        121 CT  -2.7116444E-06  0.0000000E+00 -4.6862272E-11
        122 CT  -2.7919893E-06  0.0000000E+00 -1.7912216E-11
        123 CT  -2.8741362E-06  0.0000000E+00  1.3179520E-11
        124 CT  -2.9582871E-06  0.0000000E+00  2.9515650E-11
        125 CT  -3.0445530E-06  0.0000000E+00  3.7825926E-11
        126 CT  -2.7116202E-06  0.0000000E+00  0.0000000E+00
        127 CT  -2.7919477E-06  0.0000000E+00  0.0000000E+00
        128 CT  -2.8741126E-06  0.0000000E+00  0.0000000E+00
        129 CT  -2.9582671E-06  0.0000000E+00  0.0000000E+00
        130 CT  -3.0445646E-06  0.0000000E+00  0.0000000E+00
        131 CT  -2.7116894E-06  0.0000000E+00  0.0000000E+00
        132 CT  -2.7919340E-06  0.0000000E+00  0.0000000E+00
        133 CT  -2.8740762E-06  0.0000000E+00  0.0000000E+00
        134 CT  -2.9582384E-06  0.0000000E+00  0.0000000E+00
        135 CT  -3.0445607E-06  0.0000000E+00  0.0000000E+00
        136     -2.6781915E-06 -4.2486873E-07 -6.0314855E-11
        137     -2.7575300E-06 -4.3683884E-07 -4.1809154E-11
        138     -2.8386850E-06 -4.4960504E-07 -2.0961548E-11
        139     -2.9218219E-06 -4.6273110E-07 -1.0051328E-11
        140     -3.0071198E-06 -4.7605356E-07 -3.6368835E-12
        141     -2.6782439E-06 -4.2467775E-07 -1.9331451E-11
        142     -2.7575456E-06 -4.3679156E-07 -2.5161750E-11
        143     -2.8386920E-06 -4.4959088E-07 -3.0668176E-11
        144     -2.9218280E-06 -4.6273692E-07 -2.8201928E-11
        145     -3.0071203E-06 -4.7611834E-07 -2.5803394E-11
        146     -2.6782411E-06 -4.2470275E-07 -3.9790463E-11
        147     -2.7575564E-06 -4.3678507E-07 -2.9838896E-11
        148     -2.8387036E-06 -4.4957332E-07 -2.1420924E-11
        149     -2.9218380E-06 -4.6271508E-07 -1.9534395E-11
        150     -3.0071302E-06 -4.7607677E-07 -1.6991626E-11
        151     -2.6782559E-06 -4.2468690E-07 -1.2594989E-11
        152     -2.7575635E-06 -4.3677565E-07 -1.5181599E-11
        153     -2.8387098E-06 -4.4957075E-07 -1.6708220E-11
        154     -2.9218438E-06 -4.6271321E-07 -1.3838543E-11
        155     -3.0071354E-06 -4.7608122E-07 -1.2381353E-11
        156     -2.6782550E-06 -4.2469506E-07 -1.6291267E-11
        157     -2.7575669E-06 -4.3678049E-07 -1.1919998E-11
        158     -2.8387130E-06 -4.4956940E-07 -8.9078248E-12
        159     -2.9218469E-06 -4.6271139E-07 -9.2637125E-12
        160     -3.0071383E-06 -4.7607605E-07 -8.2404887E-12
        161     -2.6782591E-06 -4.2469306E-07 -4.1464129E-12
        162     -2.7575683E-06 -4.3677895E-07 -6.1747833E-12
        163     -2.8387146E-06 -4.4957126E-07 -6.8799887E-12
        164     -2.9218485E-06 -4.6271233E-07 -5.2742230E-12
        165     -3.0071396E-06 -4.7607792E-07 -5.1273599E-12
        166     -2.6782581E-06 -4.2469625E-07 -6.4172540E-12
        167     -2.7575690E-06 -4.3678148E-07 -4.2994774E-12
        168     -2.8387150E-06 -4.4957102E-07 -3.4065282E-12
        169     -2.9218489E-06 -4.6271283E-07 -4.2141415E-12
        170     -3.0071401E-06 -4.7607776E-07 -3.7731994E-12
        171     -2.6782593E-06 -4.2469559E-07 -1.2589628E-12
        172     -2.7575690E-06 -4.3678103E-07 -2.6543558E-12
        173     -2.8387153E-06 -4.4957234E-07 -3.0207309E-12
        174     -2.9218490E-06 -4.6271318E-07 -2.1177087E-12
        175     -3.0071402E-06 -4.7607842E-07 -2.3596221E-12
        176     -2.6782588E-06 -4.2469665E-07 -2.7440027E-12
        177     -2.7575693E-06 -4.3678192E-07 -1.5508447E-12
        178     -2.8387152E-06 -4.4957197E-07 -1.2848647E-12
        179     -2.9218489E-06 -4.6271355E-07 -1.9533511E-12
        180     -3.0071402E-06 -4.7607861E-07 -1.6461147E-12
        181     -2.6782591E-06 -4.2469638E-07 -1.5103290E-13
        182     -2.7575690E-06 -4.3678179E-07 -1.1447385E-12
        183     -2.8387152E-06 -4.4957273E-07 -1.2500617E-12
        184     -2.9218489E-06 -4.6271377E-07 -6.6154254E-13
        185     -3.0071401E-06 -4.7607900E-07 -9.5238359E-13
        186     -2.6782588E-06 -4.2469661E-07 -1.2621794E-12
        187     -2.7575691E-06 -4.3678202E-07 -4.2312220E-13
        188     -2.8387151E-06 -4.4957244E-07 -3.3653856E-13
        189     -2.9218490E-06 -4.6271398E-07 -8.4777335E-13
        190     -3.0071401E-06 -4.7607911E-07 -5.8037966E-13
        191     -2.6782590E-06 -4.2469663E-07  3.8401551E-13
        192     -2.7575690E-06 -4.3678203E-07 -3.7706438E-13
        193     -2.8387151E-06 -4.4957273E-07 -4.7636097E-13
        194     -2.9218489E-06 -4.6271399E-07  4.1486119E-15
        195     -3.0071401E-06 -4.7607921E-07 -2.3815717E-13
        196     -2.6782590E-06 -4.2469655E-07 -4.4268161E-13
        197     -2.7575691E-06 -4.3678197E-07  3.3972006E-13
        198     -2.8387151E-06 -4.4957264E-07  4.2948725E-13
        199     -2.9218488E-06 -4.6271390E-07 -5.4865081E-14
        200     -3.0071401E-06 -4.7607910E-07  1.7212440E-13
        201     -2.6782589E-06 -4.2469666E-07  1.2656331E-12
        202     -2.7575691E-06 -4.3678203E-07  4.2902972E-13
        203     -2.8387151E-06 -4.4957246E-07  3.1024569E-13
        204     -2.9218488E-06 -4.6271389E-07  8.2791879E-13
        205     -3.0071401E-06 -4.7607904E-07  6.0433377E-13
        206     -2.6782591E-06 -4.2469638E-07  2.5777079E-13
        207     -2.7575690E-06 -4.3678179E-07  1.2013905E-12
        208     -2.8387152E-06 -4.4957272E-07  1.3885121E-12
        209     -2.9218489E-06 -4.6271377E-07  7.9910591E-13
        210     -3.0071401E-06 -4.7607899E-07  1.0363349E-12
        211     -2.6782587E-06 -4.2469661E-07  2.7460899E-12
        212     -2.7575692E-06 -4.3678192E-07  1.5706671E-12
        213     -2.8387151E-06 -4.4957199E-07  1.2823161E-12
        214     -2.9218490E-06 -4.6271365E-07  1.9439024E-12
        215     -3.0071402E-06 -4.7607871E-07  1.6768087E-12
        216     -2.6782593E-06 -4.2469561E-07  1.1505627E-12
        217     -2.7575690E-06 -4.3678104E-07  2.5652553E-12
        218     -2.8387153E-06 -4.4957237E-07  2.9042600E-12
        219     -2.9218490E-06 -4.6271320E-07  2.0087001E-12
        220     -3.0071402E-06 -4.7607844E-07  2.2160167E-12
        221     -2.6782582E-06 -4.2469623E-07  6.3607249E-12
        222     -2.7575691E-06 -4.3678143E-07  4.2775930E-12
        223     -2.8387150E-06 -4.4957093E-07  3.3360819E-12
        224     -2.9218487E-06 -4.6271266E-07  4.1404271E-12
        225     -3.0071400E-06 -4.7607756E-07  3.7414179E-12
        226     -2.6782591E-06 -4.2469313E-07  4.2598778E-12
        227     -2.7575683E-06 -4.3677896E-07  6.2415162E-12
        228     -2.8387146E-06 -4.4957130E-07  7.0180297E-12
        229     -2.9218484E-06 -4.6271226E-07  5.4096904E-12
        230     -3.0071396E-06 -4.7607788E-07  5.2252977E-12
        231     -2.6782549E-06 -4.2469495E-07  1.6345219E-11
        232     -2.7575669E-06 -4.3678043E-07  1.1955960E-11
        233     -2.8387130E-06 -4.4956932E-07  8.9626065E-12
        234     -2.9218470E-06 -4.6271142E-07  9.3179037E-12
        235     -3.0071384E-06 -4.7607604E-07  8.2970860E-12
        236     -2.6782558E-06 -4.2468699E-07  1.2545646E-11
        237     -2.7575635E-06 -4.3677572E-07  1.5143299E-11
        238     -2.8387097E-06 -4.4957083E-07  1.6618115E-11
        239     -2.9218439E-06 -4.6271331E-07  1.3761031E-11
        240     -3.0071354E-06 -4.7608132E-07  1.2336032E-11
        241     -2.6782411E-06 -4.2470274E-07  3.9779549E-11
        242     -2.7575564E-06 -4.3678506E-07  2.9839828E-11
        243     -2.8387036E-06 -4.4957329E-07  2.1449599E-11
        244     -2.9218379E-06 -4.6271506E-07  1.9549434E-11
        245     -3.0071302E-06 -4.7607674E-07  1.6974956E-11
        246     -2.6782439E-06 -4.2467776E-07  1.9347133E-11
        247     -2.7575456E-06 -4.3679156E-07  2.5166173E-11
        248     -2.8386920E-06 -4.4959088E-07  3.0661065E-11
        249     -2.9218280E-06 -4.6273694E-07  2.8200679E-11
        250     -3.0071203E-06 -4.7611834E-07  2.5813665E-11
        251     -2.6781915E-06 -4.2486873E-07  6.0303211E-11
        252     -2.7575300E-06 -4.3683885E-07  4.1804582E-11
        253     -2.8386850E-06 -4.4960503E-07  2.0959759E-11
        254     -2.9218219E-06 -4.6273112E-07  1.0047690E-11
        255     -3.0071198E-06 -4.7605355E-07  3.6322026E-12
        256 CT  -2.7116894E-06  0.0000000E+00  0.0000000E+00
        257 CT  -2.7919340E-06  0.0000000E+00  0.0000000E+00
        258 CT  -2.8740762E-06  0.0000000E+00  0.0000000E+00
        259 CT  -2.9582384E-06  0.0000000E+00  0.0000000E+00
        260 CT  -3.0445607E-06  0.0000000E+00  0.0000000E+00
        261 CT  -2.7117157E-06  0.0000000E+00  0.0000000E+00
        262 CT  -2.7919541E-06  0.0000000E+00  0.0000000E+00
        263 CT  -2.8740887E-06  0.0000000E+00  0.0000000E+00
        264 CT  -2.9582549E-06  0.0000000E+00  0.0000000E+00
        265 CT  -3.0446030E-06  0.0000000E+00  0.0000000E+00
        266     -2.5791946E-06 -8.3729807E-07 -1.0572683E-10
        267     -2.6553329E-06 -8.6262331E-07 -6.6720361E-11
        268     -2.7334197E-06 -8.8809543E-07 -3.4477853E-11
        269     -2.8134324E-06 -9.1420724E-07 -3.7563434E-12
        270     -2.8955298E-06 -9.4110275E-07  1.6034226E-11
        271     -2.5792047E-06 -8.3736709E-07 -2.1007301E-11
        272     -2.6553576E-06 -8.6259060E-07 -2.2861444E-11
        273     -2.7334387E-06 -8.8805037E-07 -2.4199595E-11
        274     -2.8134546E-06 -9.1416002E-07 -3.2097359E-11
        275     -2.8955704E-06 -9.4101833E-07 -3.8899359E-11
        276     -2.5792235E-06 -8.3730988E-07 -1.7694178E-11
        277     -2.6553723E-06 -8.6255874E-07 -1.5079856E-11
        278     -2.7334501E-06 -8.8803300E-07 -1.3165115E-11
        279     -2.8134632E-06 -9.1414403E-07 -5.9948256E-12
        280     -2.8955669E-06 -9.4100926E-07  6.9192449E-13
        281     -2.5792243E-06 -8.3732346E-07 -9.4889739E-12
        282     -2.6553740E-06 -8.6256336E-07 -8.9258870E-12
        283     -2.7334547E-06 -8.8802571E-07 -7.1437119E-12
        284     -2.8134673E-06 -9.1413616E-07 -9.4462824E-12
        285     -2.8955772E-06 -9.4100158E-07 -1.2491301E-11
        286     -2.5792272E-06 -8.3731759E-07 -6.6011173E-12
        287     -2.6553771E-06 -8.6255846E-07 -5.6841248E-12
        288     -2.7334556E-06 -8.8802737E-07 -6.3992636E-12
        289     -2.8134699E-06 -9.1413625E-07 -3.9588658E-12
        290     -2.8955767E-06 -9.4099880E-07 -5.4967718E-13
        291     -2.5792265E-06 -8.3732467E-07 -4.4640956E-12
        292     -2.6553767E-06 -8.6256386E-07 -4.4074409E-12
        293     -2.7334573E-06 -8.8802682E-07 -3.1982954E-12
        294     -2.8134699E-06 -9.1413640E-07 -3.6609266E-12
        295     -2.8955786E-06 -9.4100030E-07 -5.6875122E-12
        296     -2.5792275E-06 -8.3732345E-07 -3.0639735E-12
        297     -2.6553776E-06 -8.6256298E-07 -2.6050378E-12
        298     -2.7334567E-06 -8.8802916E-07 -3.1450563E-12
        299     -2.8134706E-06 -9.1413764E-07 -2.6181128E-12
        300     -2.8955783E-06 -9.4099990E-07 -6.2658593E-13
        301     -2.5792267E-06 -8.3732613E-07 -2.0986825E-12
        302     -2.6553770E-06 -8.6256516E-07 -2.3953195E-12
        303     -2.7334573E-06 -8.8802923E-07 -1.3981569E-12
        304     -2.8134705E-06 -9.1413829E-07 -1.7162482E-12
        305     -2.8955788E-06 -9.4100186E-07 -2.9619949E-12
        306     -2.5792272E-06 -8.3732550E-07 -1.5843894E-12
        307     -2.6553774E-06 -8.6256486E-07 -1.1628054E-12
        308     -2.7334568E-06 -8.8803050E-07 -1.6816625E-12
        309     -2.8134707E-06 -9.1413885E-07 -1.5051507E-12
        310     -2.8955786E-06 -9.4100178E-07 -3.5733477E-13
        311     -2.5792269E-06 -8.3732647E-07 -8.5113873E-13
        312     -2.6553771E-06 -8.6256565E-07 -1.1456642E-12
        313     -2.7334572E-06 -8.8803034E-07 -8.3531293E-13
        314     -2.8134706E-06 -9.1413930E-07 -6.4482732E-13
        315     -2.8955787E-06 -9.4100269E-07 -1.5445328E-12
        316     -2.5792274E-06 -8.3732626E-07 -7.5619566E-13
        317     -2.6553774E-06 -8.6256565E-07 -3.1081719E-13
        318     -2.7334570E-06 -8.8803070E-07 -6.5424099E-13
        319     -2.8134704E-06 -9.1413949E-07 -6.8882056E-13
        320     -2.8955784E-06 -9.4100243E-07  4.7620758E-14
        321     -2.5792270E-06 -8.3732641E-07  1.9142446E-14
        322     -2.6553772E-06 -8.6256572E-07 -5.2713270E-13
        323     -2.7334570E-06 -8.8803077E-07 -4.0774954E-14
        324     -2.8134707E-06 -9.1413960E-07 -1.0356692E-13
        325     -2.8955787E-06 -9.4100290E-07 -6.4869537E-13
        326     -2.5792271E-06 -8.3732642E-07 -3.8317452E-14
        327     -2.6553772E-06 -8.6256573E-07  5.1553550E-13
        328     -2.7334570E-06 -8.8803077E-07  2.1093271E-13
        329     -2.8134706E-06 -9.1413956E-07  9.5820566E-14
        330     -2.8955786E-06 -9.4100288E-07  6.3485132E-13
        331     -2.5792271E-06 -8.3732617E-07  7.9866999E-13
        332     -2.6553773E-06 -8.6256553E-07  2.1274342E-13
        333     -2.7334569E-06 -8.8803084E-07  5.2358542E-13
        334     -2.8134707E-06 -9.1413944E-07  6.0022590E-13
        335     -2.8955786E-06 -9.4100263E-07 -1.4312209E-14
        336     -2.5792269E-06 -8.3732647E-07  8.0320639E-13
        337     -2.6553771E-06 -8.6256566E-07  1.3552232E-12
        338     -2.7334572E-06 -8.8803034E-07  7.4844391E-13
        339     -2.8134706E-06 -9.1413930E-07  8.2837343E-13
        340     -2.8955787E-06 -9.4100269E-07  1.5064022E-12
        341     -2.5792274E-06 -8.3732559E-07  1.6549134E-12
        342     -2.6553775E-06 -8.6256498E-07  1.1158116E-12
        343     -2.7334569E-06 -8.8803033E-07  1.5743857E-12
        344     -2.8134705E-06 -9.1413892E-07  1.4718544E-12
        345     -2.8955785E-06 -9.4100157E-07  4.1075925E-13
        346     -2.5792267E-06 -8.3732612E-07  2.0255321E-12
        347     -2.6553769E-06 -8.6256515E-07  2.3269658E-12
        348     -2.7334573E-06 -8.8802923E-07  1.7243676E-12
        349     -2.8134706E-06 -9.1413832E-07  1.6464249E-12
        350     -2.8955788E-06 -9.4100187E-07  2.9128698E-12
        351     -2.5792274E-06 -8.3732337E-07  3.1096639E-12
        352     -2.6553775E-06 -8.6256288E-07  2.4861009E-12
        353     -2.7334566E-06 -8.8802932E-07  3.1593604E-12
        354     -2.8134708E-06 -9.1413752E-07  2.5167454E-12
        355     -2.8955784E-06 -9.4100009E-07  6.5802920E-13
        356     -2.5792263E-06 -8.3732458E-07  4.4534588E-12
        357     -2.6553765E-06 -8.6256373E-07  4.5935644E-12
        358     -2.7334572E-06 -8.8802697E-07  3.0540729E-12
        359     -2.8134701E-06 -9.1413638E-07  3.8277730E-12
        360     -2.8955788E-06 -9.4100050E-07  5.6770217E-12
        361     -2.5792275E-06 -8.3731767E-07  6.5905034E-12
        362     -2.6553773E-06 -8.6255859E-07  5.7196406E-12
        363     -2.7334558E-06 -8.8802723E-07  6.2742048E-12
        364     -2.8134696E-06 -9.1413626E-07  3.9858773E-12
        365     -2.8955765E-06 -9.4099860E-07  5.4388098E-13
        366     -2.5792242E-06 -8.3732344E-07  9.4994133E-12
        367     -2.6553739E-06 -8.6256334E-07  8.7667892E-12
        368     -2.7334547E-06 -8.8802575E-07  7.1499931E-12
        369     -2.8134674E-06 -9.1413619E-07  9.2997928E-12
        370     -2.8955772E-06 -9.4100161E-07  1.2495386E-11
        371     -2.5792235E-06 -8.3730989E-07  1.7660822E-11
        372     -2.6553724E-06 -8.6255875E-07  1.5173688E-11
        373     -2.7334501E-06 -8.8803299E-07  1.3287110E-11
        374     -2.8134632E-06 -9.1414400E-07  6.0843828E-12
        375     -2.8955669E-06 -9.4100927E-07 -7.2331027E-13
        376     -2.5792047E-06 -8.3736708E-07  2.1043272E-11
        377     -2.6553576E-06 -8.6259058E-07  2.2831054E-11
        378     -2.7334387E-06 -8.8805041E-07  2.4128774E-11
        379     -2.8134546E-06 -9.1416001E-07  3.2064893E-11
        380     -2.8955705E-06 -9.4101835E-07  3.8939264E-11
        381     -2.5791946E-06 -8.3729805E-07  1.0571402E-10
        382     -2.6553329E-06 -8.6262331E-07  6.6731663E-11
        383     -2.7334197E-06 -8.8809545E-07  3.4510696E-11
        384     -2.8134323E-06 -9.1420720E-07  3.7696634E-12
        385     -2.8955298E-06 -9.4110277E-07 -1.6055237E-11
        386 CT  -2.7117156E-06  0.0000000E+00  0.0000000E+00
        387 CT  -2.7919541E-06  0.0000000E+00  0.0000000E+00
        388 CT  -2.8740886E-06  0.0000000E+00  0.0000000E+00
        389 CT  -2.9582549E-06  0.0000000E+00  0.0000000E+00
        390 CT  -3.0446030E-06  0.0000000E+00  0.0000000E+00
        391 CT  -2.7117860E-06  0.0000000E+00  0.0000000E+00
        392 CT  -2.7920671E-06  0.0000000E+00  0.0000000E+00
        393 CT  -2.8742142E-06  0.0000000E+00  0.0000000E+00
        394 CT  -2.9583620E-06  0.0000000E+00  0.0000000E+00
        395 CT  -3.0446522E-06  0.0000000E+00  0.0000000E+00
        396     -2.4164354E-06 -1.2307257E-06 -1.9398084E-11
        397     -2.4879410E-06 -1.2672380E-06 -1.8089741E-11
        398     -2.5610231E-06 -1.3047441E-06 -2.1339928E-11
        399     -2.6359289E-06 -1.3430872E-06 -3.0113273E-11
        400     -2.7126447E-06 -1.3825137E-06 -3.8872548E-11
        401     -2.4164779E-06 -1.2306641E-06 -1.5352141E-11
        402     -2.4879877E-06 -1.2671732E-06 -7.8190180E-12
        403     -2.5610645E-06 -1.3046879E-06 -2.2503892E-13
        404     -2.6359628E-06 -1.3430317E-06  9.9967506E-12
        405     -2.7127053E-06 -1.3823895E-06  1.8947096E-11
        406     -2.4164807E-06 -1.2306684E-06  8.1655476E-12
        407     -2.4879874E-06 -1.2671735E-06  4.5002934E-12
        408     -2.5610710E-06 -1.3046729E-06  2.3670316E-12
        409     -2.6359700E-06 -1.3430186E-06 -1.6251703E-12
        410     -2.7127049E-06 -1.3824091E-06 -6.0293565E-12
        411     -2.4164824E-06 -1.2306571E-06 -1.5194878E-12
        412     -2.4879921E-06 -1.2671624E-06  5.5756333E-13
        413     -2.5610715E-06 -1.3046711E-06  1.1893802E-12
        414     -2.6359727E-06 -1.3430140E-06  3.1673135E-12
        415     -2.7127108E-06 -1.3823877E-06  6.2457745E-12
        416     -2.4164803E-06 -1.2306643E-06  2.0194167E-12
        417     -2.4879893E-06 -1.2671677E-06  2.9361699E-13
        418     -2.5610729E-06 -1.3046688E-06  3.1095982E-13
        419     -2.6359726E-06 -1.3430130E-06 -3.0555666E-13
        420     -2.7127098E-06 -1.3823958E-06 -2.3361623E-12
        421     -2.4164803E-06 -1.2306626E-06 -2.5091201E-12
        422     -2.4879905E-06 -1.2671659E-06 -9.0471116E-13
        423     -2.5610715E-06 -1.3046715E-06 -9.1437159E-13
        424     -2.6359735E-06 -1.3430137E-06 -5.8556987E-13
        425     -2.7127117E-06 -1.3823906E-06  1.2592610E-12
        426     -2.4164794E-06 -1.2306665E-06 -5.4523499E-13
        427     -2.4879892E-06 -1.2671691E-06 -1.6122340E-12
        428     -2.5610725E-06 -1.3046715E-06 -1.2109778E-12
        429     -2.6359733E-06 -1.3430144E-06 -8.9735106E-13
        430     -2.7127108E-06 -1.3823951E-06 -1.9635166E-12
        431     -2.4164798E-06 -1.2306659E-06 -2.3928476E-12
        432     -2.4879899E-06 -1.2671690E-06 -1.2096350E-12
        433     -2.5610717E-06 -1.3046730E-06 -1.2740465E-12
        434     -2.6359733E-06 -1.3430157E-06 -1.3830383E-12
        435     -2.7127116E-06 -1.3823935E-06 -2.5405868E-13
        436     -2.4164796E-06 -1.2306676E-06 -6.2904211E-13
        437     -2.4879895E-06 -1.2671704E-06 -1.4108999E-12
        438     -2.5610724E-06 -1.3046731E-06 -1.0898382E-12
        439     -2.6359731E-06 -1.3430163E-06 -6.8948065E-13
        440     -2.7127110E-06 -1.3823958E-06 -1.3783227E-12
        441     -2.4164798E-06 -1.2306671E-06 -1.4045646E-12
        442     -2.4879899E-06 -1.2671702E-06 -5.6424403E-13
        443     -2.5610720E-06 -1.3046738E-06 -7.1648871E-13
        444     -2.6359733E-06 -1.3430167E-06 -9.4218950E-13
        445     -2.7127115E-06 -1.3823952E-06 -1.8514400E-13
        446     -2.4164797E-06 -1.2306678E-06 -1.2241007E-13
        447     -2.4879897E-06 -1.2671706E-06 -7.6638385E-13
        448     -2.5610722E-06 -1.3046740E-06 -5.2374561E-13
        449     -2.6359734E-06 -1.3430168E-06 -2.0638420E-13
        450     -2.7127112E-06 -1.3823962E-06 -7.8547249E-13
        451     -2.4164799E-06 -1.2306676E-06 -6.8764654E-13
        452     -2.4879899E-06 -1.2671706E-06 -4.5269086E-14
        453     -2.5610722E-06 -1.3046740E-06 -2.2222422E-13
        454     -2.6359734E-06 -1.3430171E-06 -4.6000979E-13
        455     -2.7127114E-06 -1.3823959E-06  1.5763880E-13
        456     -2.4164799E-06 -1.2306677E-06  5.9897390E-13
        457     -2.4879899E-06 -1.2671707E-06 -1.7921242E-14
        458     -2.5610722E-06 -1.3046741E-06  1.8891998E-13
        459     -2.6359733E-06 -1.3430171E-06  4.1585043E-13
        460     -2.7127114E-06 -1.3823960E-06 -2.1865135E-13
        461     -2.4164798E-06 -1.2306678E-06  1.4679358E-13
        462     -2.4879898E-06 -1.2671707E-06  7.4350136E-13
        463     -2.5610723E-06 -1.3046739E-06  4.7674336E-13
        464     -2.6359732E-06 -1.3430170E-06  1.9247622E-13
        465     -2.7127112E-06 -1.3823961E-06  8.0731845E-13
        466     -2.4164798E-06 -1.2306671E-06  1.5309916E-12
        467     -2.4879899E-06 -1.2671702E-06  7.3143782E-13
        468     -2.5610720E-06 -1.3046738E-06  8.7039741E-13
        469     -2.6359733E-06 -1.3430167E-06  1.0555972E-12
        470     -2.7127115E-06 -1.3823952E-06  2.6695309E-13
        471     -2.4164795E-06 -1.2306676E-06  6.5441333E-13
        472     -2.4879895E-06 -1.2671702E-06  1.4084423E-12
        473     -2.5610723E-06 -1.3046733E-06  1.0699390E-12
        474     -2.6359733E-06 -1.3430160E-06  6.9255246E-13
        475     -2.7127111E-06 -1.3823959E-06  1.4077986E-12
        476     -2.4164798E-06 -1.2306659E-06  2.2209785E-12
        477     -2.4879899E-06 -1.2671690E-06  1.0639885E-12
        478     -2.5610717E-06 -1.3046730E-06  1.1821551E-12
        479     -2.6359733E-06 -1.3430157E-06  1.2788087E-12
        480     -2.7127116E-06 -1.3823935E-06  1.1836844E-13
        481     -2.4164795E-06 -1.2306666E-06  4.8741763E-13
        482     -2.4879893E-06 -1.2671693E-06  1.5264199E-12
        483     -2.5610725E-06 -1.3046714E-06  1.1267564E-12
        484     -2.6359729E-06 -1.3430147E-06  8.3998536E-13
        485     -2.7127107E-06 -1.3823950E-06  1.9302267E-12
        486     -2.4164803E-06 -1.2306626E-06  2.6457544E-12
        487     -2.4879905E-06 -1.2671660E-06  1.0734761E-12
        488     -2.5610716E-06 -1.3046713E-06  1.0597112E-12
        489     -2.6359733E-06 -1.3430139E-06  6.9913029E-13
        490     -2.7127118E-06 -1.3823905E-06 -1.1599573E-12
        491     -2.4164803E-06 -1.2306644E-06 -1.9389079E-12
        492     -2.4879893E-06 -1.2671676E-06 -2.3412978E-13
        493     -2.5610728E-06 -1.3046690E-06 -2.6998545E-13
        494     -2.6359728E-06 -1.3430129E-06  3.5115777E-13
        495     -2.7127098E-06 -1.3823960E-06  2.3758719E-12
        496     -2.4164824E-06 -1.2306571E-06  1.4516115E-12
        497     -2.4879921E-06 -1.2671623E-06 -6.5560734E-13
        498     -2.5610715E-06 -1.3046710E-06 -1.2916625E-12
        499     -2.6359727E-06 -1.3430140E-06 -3.2435006E-12
        500     -2.7127109E-06 -1.3823876E-06 -6.2859780E-12
        501     -2.4164807E-06 -1.2306684E-06 -8.1874567E-12
        502     -2.4879874E-06 -1.2671736E-06 -4.4761639E-12
        503     -2.5610709E-06 -1.3046730E-06 -2.3182346E-12
        504     -2.6359700E-06 -1.3430187E-06  1.6412017E-12
        505     -2.7127049E-06 -1.3824091E-06  6.0079947E-12
        506     -2.4164779E-06 -1.2306642E-06  1.5377676E-11
        507     -2.4879877E-06 -1.2671732E-06  7.8109297E-12
        508     -2.5610645E-06 -1.3046879E-06  2.0365657E-13
        509     -2.6359628E-06 -1.3430318E-06 -9.9948852E-12
        510     -2.7127053E-06 -1.3823894E-06 -1.8931358E-11
        511     -2.4164354E-06 -1.2307257E-06  1.9386504E-11
        512     -2.4879410E-06 -1.2672380E-06  1.8095947E-11
        513     -2.5610231E-06 -1.3047441E-06  2.1350209E-11
        514     -2.6359289E-06 -1.3430872E-06  3.0111092E-11
        515     -2.7126448E-06 -1.3825137E-06  3.8868540E-11
        516 CT  -2.7117860E-06  0.0000000E+00  0.0000000E+00
        517 CT  -2.7920671E-06  0.0000000E+00  0.0000000E+00
        518 CT  -2.8742142E-06  0.0000000E+00  0.0000000E+00
        519 CT  -2.9583620E-06  0.0000000E+00  0.0000000E+00
        520 CT  -3.0446522E-06  0.0000000E+00  0.0000000E+00
        521 CT  -2.7118666E-06  0.0000000E+00  0.0000000E+00
        522 CT  -2.7921460E-06  0.0000000E+00  0.0000000E+00
        523 CT  -2.8743126E-06  0.0000000E+00  0.0000000E+00
        524 CT  -2.9584848E-06  0.0000000E+00  0.0000000E+00
        525 CT  -3.0447959E-06  0.0000000E+00  0.0000000E+00
        526     -2.1944170E-06 -1.5933565E-06  3.7684622E-11
        527     -2.2590642E-06 -1.6409542E-06  3.8526429E-11
        528     -2.3254574E-06 -1.6893773E-06  3.2132907E-11
        529     -2.3935318E-06 -1.7388887E-06  1.5457955E-11
        530     -2.4634850E-06 -1.7894016E-06  5.3342689E-12
        531     -2.1943775E-06 -1.5933928E-06  4.0129086E-11
        532     -2.2590882E-06 -1.6409123E-06  3.0762808E-11
        533     -2.3254881E-06 -1.6893373E-06  2.5725110E-11
        534     -2.3935468E-06 -1.7388712E-06  3.2889818E-11
        535     -2.4634382E-06 -1.7894646E-06  3.9269047E-11
        536     -2.1943869E-06 -1.5933668E-06  1.2150079E-11
        537     -2.2590902E-06 -1.6409041E-06  1.5598434E-11
        538     -2.3254880E-06 -1.6893315E-06  1.8386017E-11
        539     -2.3935538E-06 -1.7388583E-06  1.2852011E-11
        540     -2.4634723E-06 -1.7894261E-06  8.3643601E-12
        541     -2.1943815E-06 -1.5933734E-06  1.5579792E-11
        542     -2.2590859E-06 -1.6409042E-06  1.1426238E-11
        543     -2.3254886E-06 -1.6893275E-06  7.7420590E-12
        544     -2.3935532E-06 -1.7388581E-06  1.0472139E-11
        545     -2.4634594E-06 -1.7894378E-06  1.2867156E-11
        546     -2.1943806E-06 -1.5933688E-06  1.7157668E-12
        547     -2.2590868E-06 -1.6409020E-06  3.6461454E-12
        548     -2.3254867E-06 -1.6893285E-06  5.7032219E-12
        549     -2.3935526E-06 -1.7388565E-06  3.3745972E-12
        550     -2.4634668E-06 -1.7894300E-06  1.3033400E-12
        551     -2.1943793E-06 -1.5933724E-06  3.6280042E-12
        552     -2.2590846E-06 -1.6409040E-06  2.0827609E-12
        553     -2.3254870E-06 -1.6893278E-06  4.6530993E-13
        554     -2.3935528E-06 -1.7388574E-06  2.0764562E-12
        555     -2.4634626E-06 -1.7894344E-06  3.6631341E-12
        556     -2.1943792E-06 -1.5933715E-06 -1.7521541E-12
        557     -2.2590855E-06 -1.6409040E-06 -5.2003507E-13
        558     -2.3254864E-06 -1.6893294E-06  8.1587829E-13
        559     -2.3935524E-06 -1.7388579E-06 -9.3855482E-14
        560     -2.4634654E-06 -1.7894325E-06 -9.5632899E-13
        561     -2.1943790E-06 -1.5933733E-06  1.4761203E-14
        562     -2.2590848E-06 -1.6409051E-06 -5.6930801E-13
        563     -2.3254870E-06 -1.6893294E-06 -1.2379835E-12
        564     -2.3935531E-06 -1.7388586E-06 -3.0711530E-13
        565     -2.4634639E-06 -1.7894349E-06  6.6313466E-13
        566     -2.1943792E-06 -1.5933731E-06 -1.7950340E-12
        567     -2.2590854E-06 -1.6409052E-06 -1.1093061E-12
        568     -2.3254869E-06 -1.6893304E-06 -3.7361163E-13
        569     -2.3935530E-06 -1.7388590E-06 -7.8509136E-13
        570     -2.4634651E-06 -1.7894345E-06 -1.1990510E-12
        571     -2.1943794E-06 -1.5933738E-06 -4.3868062E-13
        572     -2.2590853E-06 -1.6409058E-06 -7.3208518E-13
        573     -2.3254872E-06 -1.6893305E-06 -1.0628987E-12
        574     -2.3935533E-06 -1.7388595E-06 -5.3044446E-13
        575     -2.4634646E-06 -1.7894355E-06  8.6619496E-15
        576     -2.1943796E-06 -1.5933738E-06 -9.6026669E-13
        577     -2.2590856E-06 -1.6409060E-06 -5.9544517E-13
        578     -2.3254871E-06 -1.6893310E-06 -2.0818957E-13
        579     -2.3935532E-06 -1.7388598E-06 -4.8206759E-13
        580     -2.4634651E-06 -1.7894353E-06 -7.5639421E-13
        581     -2.1943796E-06 -1.5933739E-06  1.3727013E-13
        582     -2.2590855E-06 -1.6409060E-06 -9.6826466E-14
        583     -2.3254873E-06 -1.6893309E-06 -3.5329082E-13
        584     -2.3935534E-06 -1.7388598E-06 -5.9739574E-14
        585     -2.4634649E-06 -1.7894357E-06  2.4268919E-13
        586     -2.1943796E-06 -1.5933739E-06 -1.2879083E-13
        587     -2.2590855E-06 -1.6409060E-06  9.5276294E-14
        588     -2.3254873E-06 -1.6893309E-06  3.4453059E-13
        589     -2.3935534E-06 -1.7388598E-06  5.1189536E-14
        590     -2.4634649E-06 -1.7894357E-06 -2.4803581E-13
        591     -2.1943795E-06 -1.5933738E-06  9.6388570E-13
        592     -2.2590855E-06 -1.6409059E-06  6.2488280E-13
        593     -2.3254873E-06 -1.6893309E-06  2.5430634E-13
        594     -2.3935533E-06 -1.7388597E-06  5.0548848E-13
        595     -2.4634651E-06 -1.7894354E-06  7.6419582E-13
        596     -2.1943794E-06 -1.5933738E-06  4.1108264E-13
        597     -2.2590853E-06 -1.6409058E-06  6.7415539E-13
        598     -2.3254872E-06 -1.6893305E-06  9.8855615E-13
        599     -2.3935533E-06 -1.7388595E-06  5.0091630E-13
        600     -2.4634646E-06 -1.7894355E-06 -1.4791123E-14
        601     -2.1943793E-06 -1.5933731E-06  1.7841857E-12
        602     -2.2590854E-06 -1.6409054E-06  1.1166484E-12
        603     -2.3254868E-06 -1.6893304E-06  3.9516172E-13
        604     -2.3935529E-06 -1.7388592E-06  7.9246387E-13
        605     -2.4634651E-06 -1.7894344E-06  1.1899058E-12
        606     -2.1943790E-06 -1.5933733E-06  1.3530973E-14
        607     -2.2590848E-06 -1.6409051E-06  5.9073157E-13
        608     -2.3254870E-06 -1.6893294E-06  1.2453167E-12
        609     -2.3935531E-06 -1.7388586E-06  3.0288451E-13
        610     -2.4634639E-06 -1.7894349E-06 -6.5412828E-13
        611     -2.1943791E-06 -1.5933715E-06  1.7626754E-12
        612     -2.2590854E-06 -1.6409038E-06  5.4979713E-13
        613     -2.3254865E-06 -1.6893294E-06 -7.7353618E-13
        614     -2.3935526E-06 -1.7388577E-06  1.1016010E-13
        615     -2.4634654E-06 -1.7894326E-06  9.5500128E-13
        616     -2.1943792E-06 -1.5933724E-06 -3.6595667E-12
        617     -2.2590845E-06 -1.6409039E-06 -2.1424122E-12
        618     -2.3254871E-06 -1.6893277E-06 -5.3471761E-13
        619     -2.3935529E-06 -1.7388573E-06 -2.1033884E-12
        620     -2.4634626E-06 -1.7894345E-06 -3.6779280E-12
        621     -2.1943807E-06 -1.5933688E-06 -1.7285625E-12
        622     -2.2590868E-06 -1.6409021E-06 -3.6422446E-12
        623     -2.3254866E-06 -1.6893286E-06 -5.6980924E-12
        624     -2.3935525E-06 -1.7388566E-06 -3.3732129E-12
        625     -2.4634667E-06 -1.7894300E-06 -1.2913328E-12
        626     -2.1943815E-06 -1.5933733E-06 -1.5546655E-11
        627     -2.2590859E-06 -1.6409042E-06 -1.1384532E-11
        628     -2.3254886E-06 -1.6893276E-06 -7.6885476E-12
        629     -2.3935532E-06 -1.7388581E-06 -1.0440255E-11
        630     -2.4634593E-06 -1.7894378E-06 -1.2856438E-11
        631     -2.1943869E-06 -1.5933668E-06 -1.2154350E-11
        632     -2.2590902E-06 -1.6409041E-06 -1.5628138E-11
        633     -2.3254880E-06 -1.6893315E-06 -1.8433061E-11
        634     -2.3935538E-06 -1.7388583E-06 -1.2877093E-11
        635     -2.4634723E-06 -1.7894261E-06 -8.3733457E-12
        636     -2.1943775E-06 -1.5933927E-06 -4.0137976E-11
        637     -2.2590882E-06 -1.6409123E-06 -3.0742426E-11
        638     -2.3254881E-06 -1.6893374E-06 -2.5693109E-11
        639     -2.3935468E-06 -1.7388712E-06 -3.2880047E-11
        640     -2.4634382E-06 -1.7894646E-06 -3.9265378E-11
        641     -2.1944170E-06 -1.5933564E-06 -3.7678434E-11
        642     -2.2590641E-06 -1.6409542E-06 -3.8539855E-11
        643     -2.3254574E-06 -1.6893774E-06 -3.2151989E-11
        644     -2.3935319E-06 -1.7388886E-06 -1.5462480E-11
        645     -2.4634850E-06 -1.7894017E-06 -5.3392614E-12
        646 CT  -2.7118666E-06  0.0000000E+00  0.0000000E+00
        647 CT  -2.7921460E-06  0.0000000E+00  0.0000000E+00
        648 CT  -2.8743125E-06  0.0000000E+00  0.0000000E+00
        649 CT  -2.9584848E-06  0.0000000E+00  0.0000000E+00
        650 CT  -3.0447959E-06  0.0000000E+00  0.0000000E+00
        651 CT  -2.7117872E-06  0.0000000E+00  0.0000000E+00
        652 CT  -2.7921281E-06  0.0000000E+00  0.0000000E+00
        653 CT  -2.8743133E-06  0.0000000E+00  0.0000000E+00
        654 CT  -2.9585057E-06  0.0000000E+00  0.0000000E+00
        655 CT  -3.0448834E-06  0.0000000E+00  0.0000000E+00
        656     -1.9175219E-06 -1.9175218E-06  1.2708586E-10
        657     -1.9743426E-06 -1.9743425E-06  9.4857133E-11
        658     -2.0324463E-06 -2.0324464E-06  6.9302209E-11
        659     -2.0919718E-06 -2.0919718E-06  7.4693547E-11
        660     -2.1530877E-06 -2.1530877E-06  8.9790798E-11
        661     -1.9174885E-06 -1.9174884E-06  2.6585491E-11
        662     -1.9743284E-06 -1.9743284E-06  3.3118812E-11
        663     -2.0324407E-06 -2.0324408E-06  4.0250233E-11
        664     -2.0919728E-06 -2.0919728E-06  2.4695235E-11
        665     -2.1530944E-06 -2.1530943E-06  1.1001340E-11
        666     -1.9174923E-06 -1.9174921E-06  3.8799482E-11
        667     -1.9743243E-06 -1.9743243E-06  2.9218534E-11
        668     -2.0324386E-06 -2.0324388E-06  1.9654570E-11
        669     -2.0919725E-06 -2.0919725E-06  2.8466054E-11
        670     -2.1530878E-06 -2.1530877E-06  3.6465771E-11
        671     -1.9174847E-06 -1.9174846E-06  6.0030151E-12
        672     -1.9743231E-06 -1.9743231E-06  1.0345695E-11
        673     -2.0324366E-06 -2.0324368E-06  1.5545280E-11
        674     -2.0919697E-06 -2.0919697E-06  8.2855587E-12
        675     -2.1530915E-06 -2.1530915E-06  1.9197080E-12
        676     -1.9174861E-06 -1.9174861E-06  1.2181481E-11
        677     -1.9743209E-06 -1.9743210E-06  7.9988364E-12
        678     -2.0324358E-06 -2.0324358E-06  3.4019660E-12
        679     -2.0919705E-06 -2.0919705E-06  7.5720278E-12
        680     -2.1530887E-06 -2.1530886E-06  1.1471164E-11
        681     -1.9174841E-06 -1.9174842E-06 -1.0396811E-12
        682     -1.9743215E-06 -1.9743215E-06  1.4771828E-12
        683     -2.0324358E-06 -2.0324357E-06  4.4145794E-12
        684     -2.0919694E-06 -2.0919694E-06  1.5129333E-12
        685     -2.1530902E-06 -2.1530902E-06 -1.2016331E-12
        686     -1.9174852E-06 -1.9174852E-06  2.4428721E-12
        687     -1.9743211E-06 -1.9743211E-06  8.8966953E-13
        688     -2.0324360E-06 -2.0324360E-06 -9.6836906E-13
        689     -2.0919705E-06 -2.0919705E-06  1.1564946E-12
        690     -2.1530898E-06 -2.1530898E-06  3.3339209E-12
        691     -1.9174849E-06 -1.9174849E-06 -2.2686485E-12
        692     -1.9743219E-06 -1.9743219E-06 -9.7719231E-13
        693     -2.0324364E-06 -2.0324364E-06  5.6864656E-13
        694     -2.0919703E-06 -2.0919703E-06 -5.3939204E-13
        695     -2.1530907E-06 -2.1530907E-06 -1.7150030E-12
        696     -1.9174856E-06 -1.9174856E-06 -5.5357952E-14
        697     -1.9743220E-06 -1.9743220E-06 -6.3722226E-13
        698     -2.0324367E-06 -2.0324366E-06 -1.4299296E-12
        699     -2.0919711E-06 -2.0919711E-06 -3.8134745E-13
        700     -2.1530907E-06 -2.1530907E-06  7.8383326E-13
        701     -1.9174856E-06 -1.9174857E-06 -1.5766559E-12
        702     -1.9743224E-06 -1.9743224E-06 -9.4755954E-13
        703     -2.0324370E-06 -2.0324370E-06 -1.5477862E-13
        704     -2.0919711E-06 -2.0919711E-06 -6.7944186E-13
        705     -2.1530912E-06 -2.1530912E-06 -1.2972601E-12
        706     -1.9174859E-06 -1.9174860E-06 -9.8510786E-14
        707     -1.9743224E-06 -1.9743224E-06 -3.9614263E-13
        708     -2.0324372E-06 -2.0324371E-06 -8.4939285E-13
        709     -2.0919714E-06 -2.0919714E-06 -3.0391100E-13
        710     -2.1530913E-06 -2.1530913E-06  3.5163937E-13
        711     -1.9174859E-06 -1.9174860E-06 -6.0454710E-13
        712     -1.9743226E-06 -1.9743226E-06 -2.9329341E-13
        713     -2.0324372E-06 -2.0324372E-06  1.6777454E-13
        714     -2.0919714E-06 -2.0919714E-06 -2.1047771E-13
        715     -2.1530914E-06 -2.1530914E-06 -7.0345977E-13
        716     -1.9174860E-06 -1.9174860E-06  6.1507232E-13
        717     -1.9743226E-06 -1.9743226E-06  3.0486380E-13
        718     -2.0324372E-06 -2.0324372E-06 -1.5537926E-13
        719     -2.0919714E-06 -2.0919714E-06  2.1869246E-13
        720     -2.1530914E-06 -2.1530914E-06  7.0791738E-13
        721     -1.9174859E-06 -1.9174859E-06  9.3047958E-14
        722     -1.9743225E-06 -1.9743225E-06  3.7226620E-13
        723     -2.0324371E-06 -2.0324371E-06  8.1798255E-13
        724     -2.0919714E-06 -2.0919714E-06  2.9326497E-13
        725     -2.1530913E-06 -2.1530912E-06 -3.5662858E-13
        726     -1.9174857E-06 -1.9174857E-06  1.5556863E-12
        727     -1.9743224E-06 -1.9743224E-06  9.6481631E-13
        728     -2.0324370E-06 -2.0324370E-06  1.8697770E-13
        729     -2.0919711E-06 -2.0919711E-06  6.8090829E-13
        730     -2.1530912E-06 -2.1530912E-06  1.2981669E-12
        731     -1.9174856E-06 -1.9174856E-06  5.8388029E-14
        732     -1.9743219E-06 -1.9743219E-06  6.2785023E-13
        733     -2.0324367E-06 -2.0324367E-06  1.4144466E-12
        734     -2.0919711E-06 -2.0919711E-06  3.7345965E-13
        735     -2.1530908E-06 -2.1530908E-06 -7.8809256E-13
        736     -1.9174849E-06 -1.9174849E-06  2.2808594E-12
        737     -1.9743219E-06 -1.9743219E-06  9.7560815E-13
        738     -2.0324364E-06 -2.0324364E-06 -5.7293783E-13
        739     -2.0919703E-06 -2.0919704E-06  5.4635745E-13
        740     -2.1530907E-06 -2.1530907E-06  1.7123972E-12
        741     -1.9174852E-06 -1.9174852E-06 -2.4377022E-12
        742     -1.9743212E-06 -1.9743212E-06 -9.0571203E-13
        743     -2.0324359E-06 -2.0324359E-06  9.4344248E-13
        744     -2.0919705E-06 -2.0919705E-06 -1.1659293E-12
        745     -2.1530898E-06 -2.1530897E-06 -3.3410169E-12
        746     -1.9174841E-06 -1.9174841E-06  1.0209323E-12
        747     -1.9743215E-06 -1.9743216E-06 -1.4546967E-12
        748     -2.0324357E-06 -2.0324357E-06 -4.3776765E-12
        749     -2.0919694E-06 -2.0919694E-06 -1.5110874E-12
        750     -2.1530902E-06 -2.1530902E-06  1.2042979E-12
        751     -1.9174860E-06 -1.9174861E-06 -1.2187546E-11
        752     -1.9743209E-06 -1.9743209E-06 -8.0210774E-12
        753     -2.0324359E-06 -2.0324357E-06 -3.4279672E-12
        754     -2.0919705E-06 -2.0919705E-06 -7.5800164E-12
        755     -2.1530887E-06 -2.1530887E-06 -1.1477934E-11
        756     -1.9174847E-06 -1.9174847E-06 -5.9976725E-12
        757     -1.9743232E-06 -1.9743232E-06 -1.0347925E-11
        758     -2.0324367E-06 -2.0324367E-06 -1.5552353E-11
        759     -2.0919696E-06 -2.0919697E-06 -8.2853279E-12
        760     -2.1530915E-06 -2.1530915E-06 -1.9169059E-12
        761     -1.9174923E-06 -1.9174921E-06 -3.8793683E-11
        762     -1.9743243E-06 -1.9743243E-06 -2.9194574E-11
        763     -2.0324386E-06 -2.0324388E-06 -1.9621658E-11
        764     -2.0919725E-06 -2.0919725E-06 -2.8454057E-11
        765     -2.1530878E-06 -2.1530877E-06 -3.6461645E-11
        766     -1.9174884E-06 -1.9174884E-06 -2.6580495E-11
        767     -1.9743284E-06 -1.9743284E-06 -3.3145221E-11
        768     -2.0324407E-06 -2.0324407E-06 -4.0290482E-11
        769     -2.0919728E-06 -2.0919728E-06 -2.4707832E-11
        770     -2.1530944E-06 -2.1530943E-06 -1.1008474E-11
        771     -1.9175218E-06 -1.9175218E-06 -1.2708536E-10
        772     -1.9743426E-06 -1.9743426E-06 -9.4832988E-11
        773     -2.0324463E-06 -2.0324463E-06 -6.9268564E-11
        774     -2.0919718E-06 -2.0919718E-06 -7.4681526E-11
        775     -2.1530877E-06 -2.1530877E-06 -8.9782284E-11
        776 CT  -2.7117872E-06  0.0000000E+00  0.0000000E+00
        777 CT  -2.7921281E-06  0.0000000E+00  0.0000000E+00
        778 CT  -2.8743133E-06  0.0000000E+00  0.0000000E+00
        779 CT  -2.9585057E-06  0.0000000E+00  0.0000000E+00
        780 CT  -3.0448834E-06  0.0000000E+00  0.0000000E+00
        781 CT  -2.7118666E-06  0.0000000E+00  0.0000000E+00
        782 CT  -2.7921460E-06  0.0000000E+00  0.0000000E+00
        783 CT  -2.8743125E-06  0.0000000E+00  0.0000000E+00
        784 CT  -2.9584848E-06  0.0000000E+00  0.0000000E+00
        785 CT  -3.0447959E-06  0.0000000E+00  0.0000000E+00
        786     -1.5933564E-06 -2.1944170E-06  3.7687034E-11
        787     -1.6409543E-06 -2.2590642E-06  3.8520663E-11
        788     -1.6893775E-06 -2.3254573E-06  3.2116866E-11
        789     -1.7388887E-06 -2.3935317E-06  1.5455779E-11
        790     -1.7894016E-06 -2.4634850E-06  5.3494722E-12
        791     -1.5933927E-06 -2.1943776E-06  4.0140908E-11
        792     -1.6409123E-06 -2.2590882E-06  3.0783574E-11
        793     -1.6893375E-06 -2.3254880E-06  2.5757297E-11
        794     -1.7388713E-06 -2.3935467E-06  3.2911290E-11
        795     -1.7894645E-06 -2.4634382E-06  3.9275552E-11
        796     -1.5933667E-06 -2.1943870E-06  1.2136100E-11
        797     -1.6409041E-06 -2.2590902E-06  1.5581521E-11
        798     -1.6893317E-06 -2.3254879E-06  1.8363845E-11
        799     -1.7388583E-06 -2.3935537E-06  1.2837206E-11
        800     -1.7894260E-06 -2.4634723E-06  8.3585981E-12
        801     -1.5933733E-06 -2.1943816E-06  1.5566827E-11
        802     -1.6409043E-06 -2.2590859E-06  1.1409077E-11
        803     -1.6893276E-06 -2.3254885E-06  7.7218369E-12
        804     -1.7388582E-06 -2.3935531E-06  1.0451253E-11
        805     -1.7894377E-06 -2.4634593E-06  1.2847838E-11
        806     -1.5933688E-06 -2.1943806E-06  1.7406430E-12
        807     -1.6409020E-06 -2.2590868E-06  3.6730236E-12
        808     -1.6893285E-06 -2.3254867E-06  5.7355524E-12
        809     -1.7388565E-06 -2.3935526E-06  3.3890386E-12
        810     -1.7894300E-06 -2.4634668E-06  1.3020334E-12
        811     -1.5933724E-06 -2.1943792E-06  3.6153984E-12
        812     -1.6409039E-06 -2.2590845E-06  2.0654118E-12
        813     -1.6893276E-06 -2.3254871E-06  4.4620185E-13
        814     -1.7388573E-06 -2.3935529E-06  2.0625078E-12
        815     -1.7894344E-06 -2.4634626E-06  3.6509535E-12
        816     -1.5933715E-06 -2.1943791E-06 -1.7673272E-12
        817     -1.6409040E-06 -2.2590854E-06 -5.3393806E-13
        818     -1.6893294E-06 -2.3254864E-06  7.9631210E-13
        819     -1.7388579E-06 -2.3935524E-06 -1.0200796E-13
        820     -1.7894325E-06 -2.4634654E-06 -9.4899957E-13
        821     -1.5933733E-06 -2.1943790E-06  2.6164766E-14
        822     -1.6409051E-06 -2.2590848E-06 -5.4740168E-13
        823     -1.6893294E-06 -2.3254870E-06 -1.2030755E-12
        824     -1.7388586E-06 -2.3935531E-06 -2.8278953E-13
        825     -1.7894349E-06 -2.4634639E-06  6.7002885E-13
        826     -1.5933731E-06 -2.1943792E-06 -1.8030483E-12
        827     -1.6409052E-06 -2.2590854E-06 -1.1288728E-12
        828     -1.6893304E-06 -2.3254869E-06 -4.0726653E-13
        829     -1.7388591E-06 -2.3935530E-06 -8.0756164E-13
        830     -1.7894345E-06 -2.4634651E-06 -1.2025667E-12
        831     -1.5933739E-06 -2.1943793E-06 -4.2305770E-13
        832     -1.6409058E-06 -2.2590852E-06 -7.1282993E-13
        833     -1.6893305E-06 -2.3254872E-06 -1.0352915E-12
        834     -1.7388595E-06 -2.3935533E-06 -5.1641875E-13
        835     -1.7894355E-06 -2.4634646E-06  5.2163705E-15
        836     -1.5933738E-06 -2.1943795E-06 -9.5882249E-13
        837     -1.6409059E-06 -2.2590856E-06 -5.9444490E-13
        838     -1.6893308E-06 -2.3254873E-06 -2.0714827E-13
        839     -1.7388597E-06 -2.3935533E-06 -4.8077932E-13
        840     -1.7894353E-06 -2.4634651E-06 -7.5480569E-13
        841     -1.5933740E-06 -2.1943795E-06  1.1757588E-13
        842     -1.6409060E-06 -2.2590855E-06 -1.1785197E-13
        843     -1.6893309E-06 -2.3254874E-06 -3.8177315E-13
        844     -1.7388598E-06 -2.3935534E-06 -7.5535486E-14
        845     -1.7894357E-06 -2.4634649E-06  2.4314674E-13
        846     -1.5933740E-06 -2.1943796E-06 -1.1542064E-13
        847     -1.6409060E-06 -2.2590855E-06  1.1476204E-13
        848     -1.6893309E-06 -2.3254874E-06  3.7457567E-13
        849     -1.7388598E-06 -2.3935534E-06  7.2397133E-14
        850     -1.7894357E-06 -2.4634649E-06 -2.4248772E-13
        851     -1.5933738E-06 -2.1943795E-06  9.6724980E-13
        852     -1.6409059E-06 -2.2590855E-06  6.2306545E-13
        853     -1.6893308E-06 -2.3254873E-06  2.4406196E-13
        854     -1.7388597E-06 -2.3935533E-06  4.9973577E-13
        855     -1.7894354E-06 -2.4634651E-06  7.6997316E-13
        856     -1.5933738E-06 -2.1943794E-06  4.0821493E-13
        857     -1.6409058E-06 -2.2590853E-06  6.7297076E-13
        858     -1.6893305E-06 -2.3254872E-06  9.9270974E-13
        859     -1.7388595E-06 -2.3935533E-06  5.0217886E-13
        860     -1.7894355E-06 -2.4634646E-06 -2.2677657E-14
        861     -1.5933731E-06 -2.1943793E-06  1.7876763E-12
        862     -1.6409054E-06 -2.2590854E-06  1.1172313E-12
        863     -1.6893304E-06 -2.3254869E-06  3.9167226E-13
        864     -1.7388592E-06 -2.3935528E-06  7.9170028E-13
        865     -1.7894344E-06 -2.4634651E-06  1.1955277E-12
        866     -1.5933733E-06 -2.1943790E-06  8.2902317E-15
        867     -1.6409051E-06 -2.2590848E-06  5.9197834E-13
        868     -1.6893294E-06 -2.3254870E-06  1.2519709E-12
        869     -1.7388586E-06 -2.3935531E-06  3.0610831E-13
        870     -1.7894349E-06 -2.4634639E-06 -6.5640705E-13
        871     -1.5933715E-06 -2.1943791E-06  1.7467896E-12
        872     -1.6409038E-06 -2.2590854E-06  5.2962467E-13
        873     -1.6893294E-06 -2.3254866E-06 -7.9935014E-13
        874     -1.7388578E-06 -2.3935526E-06  9.0854610E-14
        875     -1.7894326E-06 -2.4634654E-06  9.4404525E-13
        876     -1.5933724E-06 -2.1943792E-06 -3.6376793E-12
        877     -1.6409039E-06 -2.2590845E-06 -2.1249495E-12
        878     -1.6893277E-06 -2.3254871E-06 -5.1773367E-13
        879     -1.7388573E-06 -2.3935529E-06 -2.0946436E-12
        880     -1.7894345E-06 -2.4634626E-06 -3.6753506E-12
        881     -1.5933688E-06 -2.1943806E-06 -1.7168655E-12
        882     -1.6409020E-06 -2.2590868E-06 -3.6231899E-12
        883     -1.6893284E-06 -2.3254868E-06 -5.6692716E-12
        884     -1.7388565E-06 -2.3935526E-06 -3.3532428E-12
        885     -1.7894300E-06 -2.4634668E-06 -1.2851166E-12
        886     -1.5933734E-06 -2.1943815E-06 -1.5583582E-11
        887     -1.6409042E-06 -2.2590859E-06 -1.1426133E-11
        888     -1.6893276E-06 -2.3254886E-06 -7.7440611E-12
        889     -1.7388581E-06 -2.3935532E-06 -1.0470062E-11
        890     -1.7894378E-06 -2.4634594E-06 -1.2855977E-11
        891     -1.5933668E-06 -2.1943869E-06 -1.2142293E-11
        892     -1.6409041E-06 -2.2590902E-06 -1.5609120E-11
        893     -1.6893317E-06 -2.3254879E-06 -1.8402868E-11
        894     -1.7388584E-06 -2.3935537E-06 -1.2856179E-11
        895     -1.7894260E-06 -2.4634723E-06 -8.3683977E-12
        896     -1.5933927E-06 -2.1943775E-06 -4.0118665E-11
        897     -1.6409123E-06 -2.2590882E-06 -3.0726323E-11
        898     -1.6893374E-06 -2.3254881E-06 -2.5679963E-11
        899     -1.7388712E-06 -2.3935468E-06 -3.2873809E-11
        900     -1.7894646E-06 -2.4634382E-06 -3.9260172E-11
        901     -1.5933565E-06 -2.1944170E-06 -3.7694616E-11
        902     -1.6409542E-06 -2.2590641E-06 -3.8559491E-11
        903     -1.6893774E-06 -2.3254574E-06 -3.2173649E-11
        904     -1.7388887E-06 -2.3935319E-06 -1.5479892E-11
        905     -1.7894017E-06 -2.4634850E-06 -5.3541625E-12
        906 CT  -2.7118666E-06  0.0000000E+00  0.0000000E+00
        907 CT  -2.7921460E-06  0.0000000E+00  0.0000000E+00
        908 CT  -2.8743125E-06  0.0000000E+00  0.0000000E+00
        909 CT  -2.9584848E-06  0.0000000E+00  0.0000000E+00
        910 CT  -3.0447959E-06  0.0000000E+00  0.0000000E+00
        911 CT  -2.7117859E-06  0.0000000E+00  0.0000000E+00
        912 CT  -2.7920671E-06  0.0000000E+00  0.0000000E+00
        913 CT  -2.8742142E-06  0.0000000E+00  0.0000000E+00
        914 CT  -2.9583621E-06  0.0000000E+00  0.0000000E+00
        915 CT  -3.0446522E-06  0.0000000E+00  0.0000000E+00
        916     -1.2307257E-06 -2.4164353E-06 -1.9332822E-11
        917     -1.2672379E-06 -2.4879410E-06 -1.8009855E-11
        918     -1.3047442E-06 -2.5610230E-06 -2.1262410E-11
        919     -1.3430869E-06 -2.6359291E-06 -3.0054292E-11
        920     -1.3825138E-06 -2.7126448E-06 -3.8839772E-11
        921     -1.2306640E-06 -2.4164778E-06 -1.5338692E-11
        922     -1.2671730E-06 -2.4879876E-06 -7.8388047E-12
        923     -1.3046880E-06 -2.5610644E-06 -2.6738818E-13
        924     -1.3430315E-06 -2.6359631E-06  9.9775134E-12
        925     -1.3823895E-06 -2.7127053E-06  1.8963525E-11
        926     -1.2306683E-06 -2.4164806E-06  8.1597147E-12
        927     -1.2671733E-06 -2.4879873E-06  4.5145592E-12
        928     -1.3046730E-06 -2.5610709E-06  2.3946762E-12
        929     -1.3430184E-06 -2.6359703E-06 -1.6084650E-12
        930     -1.3824091E-06 -2.7127050E-06 -6.0302348E-12
        931     -1.2306571E-06 -2.4164823E-06 -1.5948845E-12
        932     -1.2671622E-06 -2.4879921E-06  5.1022833E-13
        933     -1.3046712E-06 -2.5610714E-06  1.1727049E-12
        934     -1.3430138E-06 -2.6359729E-06  3.1424269E-12
        935     -1.3823878E-06 -2.7127109E-06  6.2039316E-12
        936     -1.2306644E-06 -2.4164803E-06  1.8763161E-12
        937     -1.2671677E-06 -2.4879893E-06  1.4439262E-13
        938     -1.3046688E-06 -2.5610728E-06  1.8997729E-13
        939     -1.3430130E-06 -2.6359726E-06 -4.0838214E-13
        940     -1.3823959E-06 -2.7127098E-06 -2.4207696E-12
        941     -1.2306626E-06 -2.4164803E-06 -2.5071401E-12
        942     -1.2671660E-06 -2.4879905E-06 -8.8183265E-13
        943     -1.3046714E-06 -2.5610715E-06 -8.8427535E-13
        944     -1.3430139E-06 -2.6359733E-06 -5.6493459E-13
        945     -1.3823905E-06 -2.7127117E-06  1.2712013E-12
        946     -1.2306666E-06 -2.4164794E-06 -4.6754733E-13
        947     -1.2671691E-06 -2.4879892E-06 -1.5312744E-12
        948     -1.3046715E-06 -2.5610724E-06 -1.1391410E-12
        949     -1.3430144E-06 -2.6359732E-06 -8.3663363E-13
        950     -1.3823952E-06 -2.7127107E-06 -1.9215654E-12
        951     -1.2306659E-06 -2.4164798E-06 -2.3659652E-12
        952     -1.2671690E-06 -2.4879899E-06 -1.2204397E-12
        953     -1.3046730E-06 -2.5610717E-06 -1.3077031E-12
        954     -1.3430157E-06 -2.6359733E-06 -1.3921547E-12
        955     -1.3823935E-06 -2.7127116E-06 -2.2592508E-13
        956     -1.2306676E-06 -2.4164796E-06 -6.5317355E-13
        957     -1.2671704E-06 -2.4879895E-06 -1.3954639E-12
        958     -1.3046731E-06 -2.5610723E-06 -1.0496710E-12
        959     -1.3430162E-06 -2.6359731E-06 -6.7581180E-13
        960     -1.3823958E-06 -2.7127110E-06 -1.4055240E-12
        961     -1.2306672E-06 -2.4164798E-06 -1.4682017E-12
        962     -1.2671703E-06 -2.4879899E-06 -6.4272817E-13
        963     -1.3046739E-06 -2.5610720E-06 -7.9028690E-13
        964     -1.3430167E-06 -2.6359733E-06 -9.9786884E-13
        965     -1.3823953E-06 -2.7127114E-06 -2.1507868E-13
        966     -1.2306677E-06 -2.4164798E-06 -1.2569760E-13
        967     -1.2671707E-06 -2.4879898E-06 -7.6866370E-13
        968     -1.3046739E-06 -2.5610723E-06 -5.2689707E-13
        969     -1.3430169E-06 -2.6359733E-06 -2.0996912E-13
        970     -1.3823961E-06 -2.7127112E-06 -7.8833447E-13
        971     -1.2306676E-06 -2.4164799E-06 -6.1523857E-13
        972     -1.2671707E-06 -2.4879899E-06  3.7641248E-14
        973     -1.3046741E-06 -2.5610722E-06 -1.4358170E-13
        974     -1.3430171E-06 -2.6359733E-06 -3.9706375E-13
        975     -1.3823960E-06 -2.7127113E-06  1.9548391E-13
        976     -1.2306676E-06 -2.4164799E-06  6.0953911E-13
        977     -1.2671707E-06 -2.4879899E-06 -3.4286317E-14
        978     -1.3046741E-06 -2.5610722E-06  1.5183351E-13
        979     -1.3430171E-06 -2.6359733E-06  3.9811686E-13
        980     -1.3823960E-06 -2.7127114E-06 -2.0259836E-13
        981     -1.2306678E-06 -2.4164798E-06  1.3324283E-13
        982     -1.2671708E-06 -2.4879898E-06  7.4290452E-13
        983     -1.3046739E-06 -2.5610723E-06  4.8942848E-13
        984     -1.3430170E-06 -2.6359732E-06  1.9265109E-13
        985     -1.3823961E-06 -2.7127112E-06  7.8465941E-13
        986     -1.2306671E-06 -2.4164798E-06  1.5373836E-12
        987     -1.2671702E-06 -2.4879899E-06  7.3355153E-13
        988     -1.3046738E-06 -2.5610720E-06  8.6408936E-13
        989     -1.3430167E-06 -2.6359734E-06  1.0562101E-12
        990     -1.3823952E-06 -2.7127115E-06  2.8299954E-13
        991     -1.2306676E-06 -2.4164795E-06  6.4529902E-13
        992     -1.2671702E-06 -2.4879895E-06  1.4058757E-12
        993     -1.3046733E-06 -2.5610723E-06  1.0734104E-12
        994     -1.3430160E-06 -2.6359733E-06  6.8979231E-13
        995     -1.3823959E-06 -2.7127111E-06  1.3948060E-12
        996     -1.2306659E-06 -2.4164798E-06  2.2346926E-12
        997     -1.2671690E-06 -2.4879899E-06  1.0630460E-12
        998     -1.3046730E-06 -2.5610717E-06  1.1737694E-12
        999     -1.3430157E-06 -2.6359733E-06  1.2803610E-12
       1000     -1.3823935E-06 -2.7127116E-06  1.3191668E-13
       1001     -1.2306666E-06 -2.4164795E-06  4.7857256E-13
       1002     -1.2671693E-06 -2.4879893E-06  1.5407543E-12
       1003     -1.3046714E-06 -2.5610725E-06  1.1536661E-12
       1004     -1.3430147E-06 -2.6359730E-06  8.5380566E-13
       1005     -1.3823950E-06 -2.7127107E-06  1.9244110E-12
       1006     -1.2306626E-06 -2.4164803E-06  2.5603074E-12
       1007     -1.2671661E-06 -2.4879905E-06  9.9151539E-13
       1008     -1.3046713E-06 -2.5610715E-06  9.9542912E-13
       1009     -1.3430139E-06 -2.6359733E-06  6.3853085E-13
       1010     -1.3823906E-06 -2.7127117E-06 -1.2167977E-12
       1011     -1.2306644E-06 -2.4164803E-06 -1.9262458E-12
       1012     -1.2671677E-06 -2.4879893E-06 -2.5038635E-13
       1013     -1.3046689E-06 -2.5610728E-06 -3.0523378E-13
       1014     -1.3430130E-06 -2.6359726E-06  3.3480562E-13
       1015     -1.3823959E-06 -2.7127097E-06  2.3893097E-12
       1016     -1.2306571E-06 -2.4164824E-06  1.5888972E-12
       1017     -1.2671623E-06 -2.4879921E-06 -4.9353208E-13
       1018     -1.3046710E-06 -2.5610715E-06 -1.1411838E-12
       1019     -1.3430139E-06 -2.6359728E-06 -3.1244456E-12
       1020     -1.3823876E-06 -2.7127109E-06 -6.2108766E-12
       1021     -1.2306684E-06 -2.4164806E-06 -8.1775660E-12
       1022     -1.2671734E-06 -2.4879873E-06 -4.4944537E-12
       1023     -1.3046731E-06 -2.5610708E-06 -2.3577525E-12
       1024     -1.3430185E-06 -2.6359702E-06  1.6222298E-12
       1025     -1.3824092E-06 -2.7127049E-06  6.0232879E-12
       1026     -1.2306641E-06 -2.4164779E-06  1.5293708E-11
       1027     -1.2671732E-06 -2.4879876E-06  7.7294668E-12
       1028     -1.3046878E-06 -2.5610645E-06  1.4511941E-13
       1029     -1.3430317E-06 -2.6359629E-06 -1.0052508E-11
       1030     -1.3823894E-06 -2.7127053E-06 -1.8993967E-11
       1031     -1.2307257E-06 -2.4164354E-06  1.9376709E-11
       1032     -1.2672380E-06 -2.4879410E-06  1.8107240E-11
       1033     -1.3047441E-06 -2.5610231E-06  2.1368014E-11
       1034     -1.3430872E-06 -2.6359289E-06  3.0121555E-11
       1035     -1.3825137E-06 -2.7126447E-06  3.8870066E-11
       1036 CT  -2.7117860E-06  0.0000000E+00  0.0000000E+00
       1037 CT  -2.7920671E-06  0.0000000E+00  0.0000000E+00
       1038 CT  -2.8742142E-06  0.0000000E+00  0.0000000E+00
       1039 CT  -2.9583620E-06  0.0000000E+00  0.0000000E+00
       1040 CT  -3.0446522E-06  0.0000000E+00  0.0000000E+00
       1041 CT  -2.7117155E-06  0.0000000E+00  0.0000000E+00
       1042 CT  -2.7919540E-06  0.0000000E+00  0.0000000E+00
       1043 CT  -2.8740886E-06  0.0000000E+00  0.0000000E+00
       1044 CT  -2.9582549E-06  0.0000000E+00  0.0000000E+00
       1045 CT  -3.0446030E-06  0.0000000E+00  0.0000000E+00
       1046     -8.3729813E-07 -2.5791948E-06 -1.0577742E-10
       1047     -8.6262343E-07 -2.6553330E-06 -6.6635075E-11
       1048     -8.8809531E-07 -2.7334198E-06 -3.4550526E-11
       1049     -9.1420725E-07 -2.8134321E-06 -3.6838661E-12
       1050     -9.4110258E-07 -2.8955296E-06  1.6003533E-11
       1051     -8.3736715E-07 -2.5792048E-06 -2.0984875E-11
       1052     -8.6259069E-07 -2.6553577E-06 -2.2950182E-11
       1053     -8.8805026E-07 -2.7334388E-06 -2.4295185E-11
       1054     -9.1416007E-07 -2.8134544E-06 -3.2171246E-11
       1055     -9.4101818E-07 -2.8955703E-06 -3.8883535E-11
       1056     -8.3730995E-07 -2.5792236E-06 -1.7700360E-11
       1057     -8.6255885E-07 -2.6553724E-06 -1.5016966E-11
       1058     -8.8803288E-07 -2.7334502E-06 -1.3104733E-11
       1059     -9.1414406E-07 -2.8134630E-06 -5.9407134E-12
       1060     -9.4100911E-07 -2.8955668E-06  6.9723082E-13
       1061     -8.3732352E-07 -2.5792245E-06 -9.4684683E-12
       1062     -8.6256346E-07 -2.6553741E-06 -8.9074327E-12
       1063     -8.8802560E-07 -2.7334548E-06 -6.9761715E-12
       1064     -9.1413620E-07 -2.8134671E-06 -9.4142804E-12
       1065     -9.4100142E-07 -2.8955770E-06 -1.2469689E-11
       1066     -8.3731760E-07 -2.5792273E-06 -6.5927529E-12
       1067     -8.6255848E-07 -2.6553771E-06 -5.8208868E-12
       1068     -8.8802737E-07 -2.7334557E-06 -6.2085070E-12
       1069     -9.1413629E-07 -2.8134699E-06 -4.0861489E-12
       1070     -9.4099876E-07 -2.8955767E-06 -5.3162653E-13
       1071     -8.3732461E-07 -2.5792263E-06 -4.4306414E-12
       1072     -8.6256376E-07 -2.6553766E-06 -4.3547372E-12
       1073     -8.8802693E-07 -2.7334573E-06 -3.1617285E-12
       1074     -9.1413642E-07 -2.8134701E-06 -3.5987388E-12
       1075     -9.4100045E-07 -2.8955788E-06 -5.6717362E-12
       1076     -8.3732345E-07 -2.5792275E-06 -3.0904999E-12
       1077     -8.6256298E-07 -2.6553776E-06 -2.4956174E-12
       1078     -8.8802915E-07 -2.7334567E-06 -3.1875764E-12
       1079     -9.1413763E-07 -2.8134706E-06 -2.5313210E-12
       1080     -9.4099988E-07 -2.8955783E-06 -6.3193281E-13
       1081     -8.3732613E-07 -2.5792267E-06 -2.0482602E-12
       1082     -8.6256516E-07 -2.6553770E-06 -2.5005473E-12
       1083     -8.8802923E-07 -2.7334574E-06 -1.5395116E-12
       1084     -9.1413834E-07 -2.8134705E-06 -1.8034119E-12
       1085     -9.4100184E-07 -2.8955788E-06 -2.9263468E-12
       1086     -8.3732551E-07 -2.5792272E-06 -1.6373473E-12
       1087     -8.6256486E-07 -2.6553774E-06 -1.0494717E-12
       1088     -8.8803049E-07 -2.7334568E-06 -1.5271708E-12
       1089     -9.1413890E-07 -2.8134707E-06 -1.4087011E-12
       1090     -9.4100174E-07 -2.8955786E-06 -3.9082192E-13
       1091     -8.3732648E-07 -2.5792269E-06 -8.0988875E-13
       1092     -8.6256567E-07 -2.6553771E-06 -1.2663662E-12
       1093     -8.8803034E-07 -2.7334572E-06 -8.1746978E-13
       1094     -9.1413932E-07 -2.8134705E-06 -7.4595015E-13
       1095     -9.4100265E-07 -2.8955787E-06 -1.5204983E-12
       1096     -8.3732619E-07 -2.5792271E-06 -7.6698925E-13
       1097     -8.6256554E-07 -2.6553773E-06 -3.0128143E-13
       1098     -8.8803081E-07 -2.7334569E-06 -6.3308888E-13
       1099     -9.1413952E-07 -2.8134706E-06 -6.8323669E-13
       1100     -9.4100258E-07 -2.8955787E-06  4.1076499E-14
       1101     -8.3732642E-07 -2.5792271E-06  4.3627125E-15
       1102     -8.6256574E-07 -2.6553772E-06 -4.2638918E-13
       1103     -8.8803077E-07 -2.7334571E-06 -1.0443488E-13
       1104     -9.1413962E-07 -2.8134706E-06 -1.4758119E-14
       1105     -9.4100285E-07 -2.8955787E-06 -6.5534060E-13
       1106     -8.3732642E-07 -2.5792270E-06 -1.5175917E-14
       1107     -8.6256573E-07 -2.6553772E-06  4.3597944E-13
       1108     -8.8803077E-07 -2.7334571E-06  1.1949144E-13
       1109     -9.1413962E-07 -2.8134706E-06  2.5441917E-14
       1110     -9.4100286E-07 -2.8955787E-06  6.4703415E-13
       1111     -8.3732619E-07 -2.5792272E-06  7.5741855E-13
       1112     -8.6256554E-07 -2.6553773E-06  2.4218226E-13
       1113     -8.8803083E-07 -2.7334569E-06  5.8372599E-13
       1114     -9.1413948E-07 -2.8134706E-06  6.2078531E-13
       1115     -9.4100259E-07 -2.8955786E-06 -4.3853592E-14
       1116     -8.3732648E-07 -2.5792269E-06  8.3853728E-13
       1117     -8.6256566E-07 -2.6553771E-06  1.3382491E-12
       1118     -8.8803035E-07 -2.7334572E-06  7.0539135E-13
       1119     -9.1413935E-07 -2.8134706E-06  8.1932057E-13
       1120     -9.4100266E-07 -2.8955787E-06  1.5269119E-12
       1121     -8.3732559E-07 -2.5792274E-06  1.6272066E-12
       1122     -8.6256497E-07 -2.6553775E-06  1.1326745E-12
[...]
       2414      2.8134707E-06 -9.1413949E-07  6.1753891E-13
       2415      2.8955786E-06 -9.4100261E-07 -4.4440005E-14
       2416      2.5792269E-06 -8.3732648E-07  8.0870323E-13
       2417      2.6553771E-06 -8.6256567E-07  1.2925006E-12
       2418      2.7334572E-06 -8.8803030E-07  6.7467486E-13
       2419      2.8134706E-06 -9.1413930E-07  7.6521639E-13
       2420      2.8955787E-06 -9.4100267E-07  1.5175447E-12
       2421      2.5792273E-06 -8.3732558E-07  1.6177524E-12
       2422      2.6553774E-06 -8.6256497E-07  1.1662971E-12
       2423      2.7334569E-06 -8.8803033E-07  1.4905961E-12
       2424      2.8134705E-06 -9.1413896E-07  1.5154175E-12
       2425      2.8955785E-06 -9.4100158E-07  3.7340322E-13
       2426      2.5792269E-06 -8.3732621E-07  2.0424539E-12
       2427      2.6553771E-06 -8.6256528E-07  2.3434548E-12
       2428      2.7334574E-06 -8.8802905E-07  1.5573599E-12
       2429      2.8134703E-06 -9.1413837E-07  1.6589431E-12
       2430      2.8955787E-06 -9.4100166E-07  2.9234426E-12
       2431      2.5792275E-06 -8.3732345E-07  3.0892144E-12
       2432      2.6553775E-06 -8.6256298E-07  2.4997615E-12
       2433      2.7334567E-06 -8.8802916E-07  3.1868527E-12
       2434      2.8134706E-06 -9.1413765E-07  2.5297250E-12
       2435      2.8955783E-06 -9.4099990E-07  6.4011236E-13
       2436      2.5792265E-06 -8.3732467E-07  4.4402085E-12
       2437      2.6553767E-06 -8.6256387E-07  4.5114953E-12
       2438      2.7334573E-06 -8.8802679E-07  3.1528143E-12
       2439      2.8134698E-06 -9.1413643E-07  3.7503919E-12
       2440      2.8955786E-06 -9.4100028E-07  5.6651494E-12
       2441      2.5792274E-06 -8.3731767E-07  6.6169798E-12
       2442      2.6553772E-06 -8.6255859E-07  5.7027637E-12
       2443      2.7334558E-06 -8.8802720E-07  6.2327554E-12
       2444      2.8134697E-06 -9.1413633E-07  3.9754489E-12
       2445      2.8955765E-06 -9.4099859E-07  5.6278359E-13
       2446      2.5792244E-06 -8.3732353E-07  9.4515145E-12
       2447      2.6553741E-06 -8.6256347E-07  8.8877470E-12
       2448      2.7334548E-06 -8.8802557E-07  7.1406916E-12
       2449      2.8134671E-06 -9.1413624E-07  9.4025790E-12
       2450      2.8955770E-06 -9.4100140E-07  1.2459718E-11
       2451      2.5792236E-06 -8.3730996E-07  1.7719613E-11
       2452      2.6553724E-06 -8.6255886E-07  1.5067976E-11
       2453      2.7334502E-06 -8.8803285E-07  1.3133280E-11
       2454      2.8134630E-06 -9.1414408E-07  5.9890390E-12
       2455      2.8955668E-06 -9.4100909E-07 -6.7419306E-13
       2456      2.5792048E-06 -8.3736716E-07  2.0997565E-11
       2457      2.6553577E-06 -8.6259070E-07  2.2936863E-11
       2458      2.7334388E-06 -8.8805023E-07  2.4278124E-11
       2459      2.8134544E-06 -9.1416011E-07  3.2161441E-11
       2460      2.8955703E-06 -9.4101816E-07  3.8890097E-11
       2461      2.5791948E-06 -8.3729815E-07  1.0577113E-10
       2462      2.6553330E-06 -8.6262344E-07  6.6643672E-11
       2463      2.7334198E-06 -8.8809528E-07  3.4562182E-11
       2464      2.8134321E-06 -9.1420727E-07  3.6892737E-12
       2465      2.8955296E-06 -9.4110256E-07 -1.6001999E-11
       2466 CT  -2.7117155E-06  0.0000000E+00  0.0000000E+00
       2467 CT  -2.7919540E-06  0.0000000E+00  0.0000000E+00
       2468 CT  -2.8740886E-06  0.0000000E+00  0.0000000E+00
       2469 CT  -2.9582549E-06  0.0000000E+00  0.0000000E+00
       2470 CT  -3.0446030E-06  0.0000000E+00  0.0000000E+00
       2471 CT  -2.7116894E-06  0.0000000E+00  0.0000000E+00
       2472 CT  -2.7919340E-06  0.0000000E+00  0.0000000E+00
       2473 CT  -2.8740762E-06  0.0000000E+00  0.0000000E+00
       2474 CT  -2.9582384E-06  0.0000000E+00  0.0000000E+00
       2475 CT  -3.0445607E-06  0.0000000E+00  0.0000000E+00
       2476      2.6781915E-06 -4.2486870E-07 -6.0316646E-11
       2477      2.7575300E-06 -4.3683882E-07 -4.1813437E-11
       2478      2.8386850E-06 -4.4960502E-07 -2.0973240E-11
       2479      2.9218219E-06 -4.6273108E-07 -1.0058782E-11
       2480      3.0071198E-06 -4.7605354E-07 -3.6389363E-12
       2481      2.6782438E-06 -4.2467779E-07 -1.9275049E-11
       2482      2.7575456E-06 -4.3679159E-07 -2.5125883E-11
       2483      2.8386920E-06 -4.4959093E-07 -3.0619393E-11
       2484      2.9218280E-06 -4.6273697E-07 -2.8149609E-11
       2485      3.0071203E-06 -4.7611840E-07 -2.5739765E-11
       2486      2.6782410E-06 -4.2470274E-07 -3.9736121E-11
       2487      2.7575563E-06 -4.3678510E-07 -2.9803732E-11
       2488      2.8387035E-06 -4.4957335E-07 -2.1343840E-11
       2489      2.9218381E-06 -4.6271522E-07 -1.9462941E-11
       2490      3.0071303E-06 -4.7607690E-07 -1.6946549E-11
       2491      2.6782557E-06 -4.2468689E-07 -1.2648058E-11
       2492      2.7575634E-06 -4.3677568E-07 -1.5215878E-11
       2493      2.8387097E-06 -4.4957078E-07 -1.6783812E-11
       2494      2.9218440E-06 -4.6271335E-07 -1.3908104E-11
       2495      3.0071354E-06 -4.7608135E-07 -1.2425533E-11
       2496      2.6782550E-06 -4.2469509E-07 -1.6350451E-11
       2497      2.7575669E-06 -4.3678052E-07 -1.1953077E-11
       2498      2.8387130E-06 -4.4956946E-07 -8.9561984E-12
       2499      2.9218469E-06 -4.6271142E-07 -9.3171221E-12
       2500      3.0071383E-06 -4.7607611E-07 -8.2988848E-12
       2501      2.6782591E-06 -4.2469303E-07 -4.1393282E-12
       2502      2.7575683E-06 -4.3677893E-07 -6.1704329E-12
       2503      2.8387146E-06 -4.4957125E-07 -6.8640450E-12
       2504      2.9218485E-06 -4.6271229E-07 -5.2616515E-12
       2505      3.0071396E-06 -4.7607790E-07 -5.1287960E-12
       2506      2.6782581E-06 -4.2469625E-07 -6.4140714E-12
       2507      2.7575690E-06 -4.3678148E-07 -4.2974268E-12
       2508      2.8387150E-06 -4.4957102E-07 -3.4105167E-12
       2509      2.9218489E-06 -4.6271283E-07 -4.2162741E-12
       2510      3.0071401E-06 -4.7607776E-07 -3.7668682E-12
       2511      2.6782593E-06 -4.2469558E-07 -1.2620425E-12
       2512      2.7575690E-06 -4.3678102E-07 -2.6543075E-12
       2513      2.8387153E-06 -4.4957235E-07 -3.0181662E-12
       2514      2.9218490E-06 -4.6271316E-07 -2.1162202E-12
       2515      3.0071402E-06 -4.7607842E-07 -2.3603692E-12
       2516      2.6782588E-06 -4.2469664E-07 -2.7404027E-12
       2517      2.7575693E-06 -4.3678192E-07 -1.5485118E-12
       2518      2.8387152E-06 -4.4957199E-07 -1.2837570E-12
       2519      2.9218489E-06 -4.6271354E-07 -1.9519494E-12
       2520      3.0071401E-06 -4.7607861E-07 -1.6437168E-12
       2521      2.6782591E-06 -4.2469637E-07 -1.5130275E-13
       2522      2.7575690E-06 -4.3678178E-07 -1.1451742E-12
       2523      2.8387152E-06 -4.4957274E-07 -1.2497119E-12
       2524      2.9218489E-06 -4.6271376E-07 -6.6110631E-13
       2525      3.0071401E-06 -4.7607901E-07 -9.5313655E-13
       2526      2.6782588E-06 -4.2469661E-07 -1.2614124E-12
       2527      2.7575691E-06 -4.3678202E-07 -4.2148841E-13
       2528      2.8387151E-06 -4.4957245E-07 -3.3616923E-13
       2529      2.9218490E-06 -4.6271397E-07 -8.4796454E-13
       2530      3.0071401E-06 -4.7607912E-07 -5.7866171E-13
       2531      2.6782590E-06 -4.2469662E-07  3.8288369E-13
       2532      2.7575690E-06 -4.3678203E-07 -3.7960913E-13
       2533      2.8387151E-06 -4.4957274E-07 -4.7681813E-13
       2534      2.9218489E-06 -4.6271398E-07  4.0571803E-15
       2535      3.0071401E-06 -4.7607922E-07 -2.4212668E-13
       2536      2.6782590E-06 -4.2469654E-07 -4.4018007E-13
       2537      2.7575691E-06 -4.3678196E-07  3.4247008E-13
       2538      2.8387151E-06 -4.4957265E-07  4.2734499E-13
       2539      2.9218488E-06 -4.6271389E-07 -5.7153790E-14
       2540      3.0071401E-06 -4.7607911E-07  1.7645532E-13
       2541      2.6782589E-06 -4.2469665E-07  1.2601484E-12
       2542      2.7575691E-06 -4.3678202E-07  4.2498092E-13
       2543      2.8387151E-06 -4.4957247E-07  3.1524454E-13
       2544      2.9218488E-06 -4.6271388E-07  8.3017189E-13
       2545      3.0071401E-06 -4.7607906E-07  5.9349950E-13
       2546      2.6782591E-06 -4.2469635E-07  2.6126838E-13
       2547      2.7575690E-06 -4.3678177E-07  1.2008479E-12
       2548      2.8387152E-06 -4.4957271E-07  1.3695924E-12
       2549      2.9218489E-06 -4.6271373E-07  7.8603498E-13
       2550      3.0071401E-06 -4.7607898E-07  1.0430304E-12
       2551      2.6782587E-06 -4.2469665E-07  2.7946576E-12
       2552      2.7575692E-06 -4.3678196E-07  1.5986194E-12
       2553      2.8387151E-06 -4.4957204E-07  1.3399641E-12
       2554      2.9218490E-06 -4.6271370E-07  2.0013496E-12
       2555      3.0071402E-06 -4.7607877E-07  1.7202239E-12
       2556      2.6782592E-06 -4.2469557E-07  1.2056815E-12
       2557      2.7575689E-06 -4.3678105E-07  2.5995947E-12
       2558      2.8387152E-06 -4.4957238E-07  2.9500868E-12
       2559      2.9218491E-06 -4.6271330E-07  2.0581863E-12
       2560      3.0071402E-06 -4.7607855E-07  2.2788307E-12
       2561      2.6782581E-06 -4.2469627E-07  6.3560658E-12
       2562      2.7575690E-06 -4.3678150E-07  4.2771402E-12
       2563      2.8387150E-06 -4.4957104E-07  3.3431672E-12
       2564      2.9218489E-06 -4.6271285E-07  4.1427893E-12
       2565      3.0071401E-06 -4.7607779E-07  3.7336700E-12
       2566      2.6782590E-06 -4.2469307E-07  4.2037091E-12
       2567      2.7575682E-06 -4.3677896E-07  6.1978567E-12
       2568      2.8387146E-06 -4.4957129E-07  6.9442727E-12
       2569      2.9218485E-06 -4.6271234E-07  5.3425407E-12
       2570      3.0071396E-06 -4.7607796E-07  5.1642268E-12
       2571      2.6782549E-06 -4.2469502E-07  1.6345366E-11
       2572      2.7575669E-06 -4.3678049E-07  1.1965783E-11
       2573      2.8387130E-06 -4.4956942E-07  8.9646981E-12
       2574      2.9218470E-06 -4.6271149E-07  9.3149025E-12
       2575      3.0071384E-06 -4.7607616E-07  8.3088061E-12
       2576      2.6782557E-06 -4.2468692E-07  1.2598665E-11
       2577      2.7575634E-06 -4.3677571E-07  1.5166913E-11
       2578      2.8387097E-06 -4.4957082E-07  1.6690023E-11
       2579      2.9218440E-06 -4.6271339E-07  1.3832329E-11
       2580      3.0071355E-06 -4.7608140E-07  1.2366976E-11
       2581      2.6782409E-06 -4.2470276E-07  3.9789807E-11
       2582      2.7575563E-06 -4.3678512E-07  2.9850057E-11
       2583      2.8387035E-06 -4.4957336E-07  2.1422099E-11
       2584      2.9218381E-06 -4.6271524E-07  1.9529688E-11
       2585      3.0071303E-06 -4.7607693E-07  1.7005291E-11
       2586      2.6782437E-06 -4.2467778E-07  1.9335675E-11
       2587      2.7575455E-06 -4.3679162E-07  2.5160504E-11
       2588      2.8386919E-06 -4.4959096E-07  3.0690812E-11
       2589      2.9218282E-06 -4.6273711E-07  2.8219206E-11
       2590      3.0071204E-06 -4.7611853E-07  2.5786403E-11
       2591      2.6781913E-06 -4.2486869E-07  6.0257363E-11
       2592      2.7575299E-06 -4.3683885E-07  4.1773249E-11
       2593      2.8386850E-06 -4.4960503E-07  2.0883717E-11
       2594      2.9218220E-06 -4.6273121E-07  9.9774846E-12
       2595      3.0071198E-06 -4.7605366E-07  3.5889279E-12
       2596 CT  -2.7116893E-06  0.0000000E+00  0.0000000E+00
       2597 CT  -2.7919340E-06  0.0000000E+00  0.0000000E+00
       2598 CT  -2.8740761E-06  0.0000000E+00  0.0000000E+00
       2599 CT  -2.9582384E-06  0.0000000E+00  0.0000000E+00
       2600 CT  -3.0445607E-06  0.0000000E+00  0.0000000E+00
       2601 CT  -2.7116202E-06  0.0000000E+00  0.0000000E+00
       2602 CT  -2.7919477E-06  0.0000000E+00  0.0000000E+00
       2603 CT  -2.8741126E-06  0.0000000E+00  0.0000000E+00
       2604 CT  -2.9582671E-06  0.0000000E+00  0.0000000E+00
       2605 CT  -3.0445646E-06  0.0000000E+00  0.0000000E+00
       2606 CT  -2.7116444E-06  0.0000000E+00  4.6903494E-11
       2607 CT  -2.7919893E-06  0.0000000E+00  1.7939591E-11
       2608 CT  -2.8741362E-06  0.0000000E+00 -1.3150675E-11
       2609 CT  -2.9582871E-06  0.0000000E+00 -2.9486145E-11
       2610 CT  -3.0445530E-06  0.0000000E+00 -3.7798097E-11
       2611 CT  -2.7116205E-06  0.0000000E+00 -7.0376618E-11
       2612 CT  -2.7919935E-06  0.0000000E+00 -4.7719432E-11
       2613 CT  -2.8741494E-06  0.0000000E+00 -2.4869579E-11
       2614 CT  -2.9582960E-06  0.0000000E+00 -1.3471226E-11
       2615 CT  -3.0445554E-06  0.0000000E+00 -3.6298550E-12
       2616 CT  -2.7116503E-06  0.0000000E+00 -1.5168493E-11
       2617 CT  -2.7920034E-06  0.0000000E+00 -2.2380948E-11
       2618 CT  -2.8741571E-06  0.0000000E+00 -2.8849370E-11
       2619 CT  -2.9583057E-06  0.0000000E+00 -2.7579863E-11
       2620 CT  -3.0445715E-06  0.0000000E+00 -2.7782039E-11
       2621 CT  -2.7116484E-06  0.0000000E+00 -3.4093866E-11
       2622 CT  -2.7920124E-06  0.0000000E+00 -2.3933803E-11
       2623 CT  -2.8741645E-06  0.0000000E+00 -1.6554232E-11
       2624 CT  -2.9583116E-06  0.0000000E+00 -1.5062317E-11
       2625 CT  -3.0445722E-06  0.0000000E+00 -1.1003789E-11
       2626 CT  -2.7116586E-06  0.0000000E+00 -6.9040655E-12
       2627 CT  -2.7920155E-06  0.0000000E+00 -1.1295240E-11
       2628 CT  -2.8741689E-06  0.0000000E+00 -1.2861031E-11
       2629 CT  -2.9583154E-06  0.0000000E+00 -1.0547180E-11
       2630 CT  -3.0445778E-06  0.0000000E+00 -1.1403773E-11
       2631 CT  -2.7116575E-06  0.0000000E+00 -1.3039097E-11
       2632 CT  -2.7920185E-06  0.0000000E+00 -8.1941886E-12
       2633 CT  -2.8741700E-06  0.0000000E+00 -6.2897621E-12
       2634 CT  -2.9583169E-06  0.0000000E+00 -7.1881098E-12
       2635 CT  -3.0445780E-06  0.0000000E+00 -5.1264175E-12
       2636 CT  -2.7116603E-06  0.0000000E+00 -1.4755667E-12
       2637 CT  -2.7920185E-06  0.0000000E+00 -4.5909132E-12
       2638 CT  -2.8741714E-06  0.0000000E+00 -5.0249120E-12
       2639 CT  -2.9583175E-06  0.0000000E+00 -3.5077712E-12
       2640 CT  -3.0445791E-06  0.0000000E+00 -4.7874836E-12
       2641 CT  -2.7116592E-06  0.0000000E+00 -5.1644923E-12
       2642 CT  -2.7920192E-06  0.0000000E+00 -2.5354211E-12
       2643 CT  -2.8741709E-06  0.0000000E+00 -2.2171550E-12
       2644 CT  -2.9583178E-06  0.0000000E+00 -3.3666750E-12
       2645 CT  -3.0445790E-06  0.0000000E+00 -2.0977306E-12
       2646 CT  -2.7116600E-06  0.0000000E+00  6.1387658E-15
       2647 CT  -2.7920187E-06  0.0000000E+00 -2.1027899E-12
       2648 CT  -2.8741714E-06  0.0000000E+00 -2.1320888E-12
       2649 CT  -2.9583178E-06  0.0000000E+00 -1.0885058E-12
       2650 CT  -3.0445792E-06  0.0000000E+00 -2.1963563E-12
       2651 CT  -2.7116596E-06  0.0000000E+00 -2.4856807E-12
       2652 CT  -2.7920191E-06  0.0000000E+00 -7.0078120E-13
       2653 CT  -2.8741710E-06  0.0000000E+00 -7.8394435E-13
       2654 CT  -2.9583177E-06  0.0000000E+00 -1.6733716E-12
       2655 CT  -3.0445790E-06  0.0000000E+00 -6.7600321E-13
       2656 CT  -2.7116598E-06  0.0000000E+00  5.9190192E-13
       2657 CT  -2.7920189E-06  0.0000000E+00 -9.8573575E-13
       2658 CT  -2.8741713E-06  0.0000000E+00 -8.6843935E-13
       2659 CT  -2.9583176E-06  0.0000000E+00 -6.0373264E-14
       2660 CT  -3.0445790E-06  0.0000000E+00 -9.8519616E-13
       2661 CT  -2.7116596E-06  0.0000000E+00 -1.1950396E-12
       2662 CT  -2.7920189E-06  0.0000000E+00  2.4777255E-13
       2663 CT  -2.8741711E-06  0.0000000E+00  1.1301538E-13
       2664 CT  -2.9583177E-06  0.0000000E+00 -6.7916866E-13
       2665 CT  -3.0445790E-06  0.0000000E+00  1.7205468E-13
       2666 CT  -2.7116596E-06  0.0000000E+00  1.2233575E-12
       2667 CT  -2.7920189E-06  0.0000000E+00 -2.4413530E-13
       2668 CT  -2.8741710E-06  0.0000000E+00 -1.1550861E-13
       2669 CT  -2.9583177E-06  0.0000000E+00  6.6204272E-13
       2670 CT  -3.0445790E-06  0.0000000E+00 -1.9394828E-13
       2671 CT  -2.7116597E-06  0.0000000E+00 -5.6978254E-13
       2672 CT  -2.7920188E-06  0.0000000E+00  1.0085765E-12
       2673 CT  -2.8741712E-06  0.0000000E+00  9.0980166E-13
       2674 CT  -2.9583177E-06  0.0000000E+00  9.5688389E-14
       2675 CT  -3.0445791E-06  0.0000000E+00  9.9929053E-13
       2676 CT  -2.7116595E-06  0.0000000E+00  2.4091251E-12
       2677 CT  -2.7920191E-06  0.0000000E+00  6.6970603E-13
       2678 CT  -2.8741710E-06  0.0000000E+00  7.3119983E-13
       2679 CT  -2.9583178E-06  0.0000000E+00  1.6558674E-12
       2680 CT  -3.0445790E-06  0.0000000E+00  7.0612150E-13
       2681 CT  -2.7116601E-06  0.0000000E+00 -3.6900290E-14
       2682 CT  -2.7920189E-06  0.0000000E+00  2.0885592E-12
       2683 CT  -2.8741715E-06  0.0000000E+00  2.1277111E-12
       2684 CT  -2.9583176E-06  0.0000000E+00  1.1028618E-12
       2685 CT  -3.0445791E-06  0.0000000E+00  2.2030618E-12
       2686 CT  -2.7116594E-06  0.0000000E+00  5.2261528E-12
       2687 CT  -2.7920193E-06  0.0000000E+00  2.5768099E-12
       2688 CT  -2.8741710E-06  0.0000000E+00  2.2505552E-12
       2689 CT  -2.9583177E-06  0.0000000E+00  3.3764342E-12
       2690 CT  -3.0445790E-06  0.0000000E+00  2.1125500E-12
       2691 CT  -2.7116603E-06  0.0000000E+00  1.5271592E-12
       2692 CT  -2.7920185E-06  0.0000000E+00  4.6139894E-12
       2693 CT  -2.8741714E-06  0.0000000E+00  5.0694304E-12
       2694 CT  -2.9583175E-06  0.0000000E+00  3.5346097E-12
       2695 CT  -3.0445791E-06  0.0000000E+00  4.7745842E-12
       2696 CT  -2.7116575E-06  0.0000000E+00  1.2956577E-11
       2697 CT  -2.7920185E-06  0.0000000E+00  8.1440214E-12
       2698 CT  -2.8741700E-06  0.0000000E+00  6.2145100E-12
       2699 CT  -2.9583169E-06  0.0000000E+00  7.1330606E-12
       2700 CT  -3.0445780E-06  0.0000000E+00  5.1111441E-12
       2701 CT  -2.7116587E-06  0.0000000E+00  6.9084132E-12
       2702 CT  -2.7920156E-06  0.0000000E+00  1.1287021E-11
       2703 CT  -2.8741689E-06  0.0000000E+00  1.2855015E-11
       2704 CT  -2.9583153E-06  0.0000000E+00  1.0547696E-11
       2705 CT  -3.0445777E-06  0.0000000E+00  1.1394973E-11
       2706 CT  -2.7116484E-06  0.0000000E+00  3.4175180E-11
       2707 CT  -2.7920125E-06  0.0000000E+00  2.4004457E-11
       2708 CT  -2.8741645E-06  0.0000000E+00  1.6642124E-11
       2709 CT  -2.9583116E-06  0.0000000E+00  1.5115944E-11
       2710 CT  -3.0445722E-06  0.0000000E+00  1.1036003E-11
       2711 CT  -2.7116503E-06  0.0000000E+00  1.5120300E-11
       2712 CT  -2.7920034E-06  0.0000000E+00  2.2342884E-11
       2713 CT  -2.8741571E-06  0.0000000E+00  2.8800328E-11
       2714 CT  -2.9583057E-06  0.0000000E+00  2.7556949E-11
       2715 CT  -3.0445715E-06  0.0000000E+00  2.7773285E-11
       2716 CT  -2.7116206E-06  0.0000000E+00  7.0321024E-11
       2717 CT  -2.7919936E-06  0.0000000E+00  4.7690778E-11
       2718 CT  -2.8741494E-06  0.0000000E+00  2.4827140E-11
       2719 CT  -2.9582958E-06  0.0000000E+00  1.3448639E-11
       2720 CT  -3.0445553E-06  0.0000000E+00  3.6340663E-12
       2721 CT  -2.7116445E-06  0.0000000E+00 -4.6848457E-11
       2722 CT  -2.7919894E-06  0.0000000E+00 -1.7902933E-11
       2723 CT  -2.8741362E-06  0.0000000E+00  1.3209960E-11
       2724 CT  -2.9582870E-06  0.0000000E+00  2.9517844E-11
       2725 CT  -3.0445530E-06  0.0000000E+00  3.7795529E-11
       2726 CT  -2.7116203E-06  0.0000000E+00  0.0000000E+00
       2727 CT  -2.7919477E-06  0.0000000E+00  0.0000000E+00
       2728 CT  -2.8741127E-06  0.0000000E+00  0.0000000E+00
       2729 CT  -2.9582671E-06  0.0000000E+00  0.0000000E+00
       2730 CT  -3.0445646E-06  0.0000000E+00  0.0000000E+00

 MAXIMUM         3.0071E-06   0.000      1.2709E-10
 AT NODE              2560           1         656

 MINIMUM        -3.0449E-06 -3.0446E-06 -1.2709E-10
 AT NODE              2080        1350         771
  
 CT: CYLINDRICAL TRANSFORMATION


          THE ANALYSIS HAS BEEN COMPLETED



                              ANALYSIS COMPLETE
                              WITH      1 WARNING MESSAGES ON THE DAT FILE



     JOB TIME SUMMARY
       USER TIME (SEC)      =   18.060    
       SYSTEM TIME (SEC)    =   3.9000    
       TOTAL CPU TIME (SEC) =   21.960    
       WALLCLOCK TIME (SEC) =          8
